pglib_opf_case3120sp_k/dapi/pglib_opf_case3120sp_k_14regions_dapi.m
% -------------------------------------------------------------------------
% Partitioned MATPOWER Case File
% Copyright (c) 2025 Milad Hasanzadeh
% Generated on: 2026-06-14
% This file contains partitioned data for 14 regions


% -------------------- mpc_regionR1 --------------------

mpc_regionR1.version = '2';
mpc_regionR1.baseMVA = 100.0000;
mpc_regionR1.bus = [
%	bus_i       type        Pd          Qd          Gs          Bs          area        Vm          Va          baseKV      zone        Vmax        Vmin        
	 1	 2	 37.79	 142	 0	 0	 1	 1	 0	 400	 3	 1.05	 0.95;
	 2	 1	 0	 0	 0	 0	 1	 1	 0	 400	 3	 1.05	 0.95;
	 3	 1	 0	 0	 0	 0	 1	 1.03	 0	 220	 3	 1.11	 0.95;
	 4	 1	 0	 0	 0	 0	 1	 1.03	 0	 220	 3	 1.11	 0.95;
	 5	 1	 4.42	 1.81	 0	 0	 1	 1.035	 0	 110	 3	 1.12	 0.95;
	 6	 1	 0	 0	 0	 0	 1	 1.035	 0	 110	 3	 1.12	 0.95;
	 7	 1	 0	 0	 0	 0	 1	 1.035	 0	 110	 3	 1.12	 0.95;
	 8	 1	 1	 0.2	 0	 0	 1	 1.035	 0	 110	 3	 1.12	 0.95;
	 9	 1	 10.21	 0.5	 0	 0	 1	 1.035	 0	 110	 3	 1.12	 0.95;
	 10	 1	 0	 0	 0	 0	 1	 1.035	 0	 110	 3	 1.12	 0.95;
	 11	 1	 16.93	-0.04	 0	 0	 1	 1.035	 0	 110	 3	 1.12	 0.95;
	 12	 1	 0	 0	 0	 0	 1	 1.035	 0	 110	 3	 1.12	 0.95;
	 13	 1	 3.79	 0.76	 0	 0	 1	 1.035	 0	 110	 3	 1.12	 0.95;
	 14	 1	 1	 0.5	 0	 0	 1	 1.035	 0	 110	 3	 1.12	 0.95;
	 15	 1	 0	 0	 0	 0	 1	 1.035	 0	 110	 3	 1.12	 0.95;
	 16	 2	 22.67	 62.01	 0	 0	 1	 1.035	 0	 110	 3	 1.12	 0.95;
	 17	 2	 28.99	 64.01	 0	 0	 1	 1.035	 0	 110	 3	 1.12	 0.95;
	 18	 1	 4.79	 0.68	 0	 0	 1	 1.035	 0	 110	 3	 1.12	 0.95;
	 19	 1	 4.04	 0.35	 0	 0	 1	 1.035	 0	 110	 3	 1.12	 0.95;
	 20	 1	 2.36	-2.35	 0	 0	 1	 1.035	 0	 110	 3	 1.12	 0.95;
	 21	 1	 0	 0	 0	 0	 1	 1.035	 0	 110	 3	 1.12	 0.95;
	 22	 1	 8.73	 0.86	 0	 0	 1	 1.035	 0	 110	 3	 1.12	 0.95;
	 23	 1	 0	 0	 0	 0	 1	 1.035	 0	 110	 3	 1.12	 0.95;
	 24	 1	 31.28	 9.33	 0	 0	 1	 1.035	 0	 110	 3	 1.12	 0.95;
	 25	 1	 11.61	 2.01	 0	 0	 1	 1.035	 0	 110	 3	 1.12	 0.95;
	 26	 1	 4.3	 1.27	 0	 0	 1	 1.035	 0	 110	 3	 1.12	 0.95;
	 27	 1	 7.33	 2.69	 0	 0	 1	 1.035	 0	 110	 3	 1.12	 0.95;
	 28	 1	 3.54	 3.2	 0	 0	 1	 1.035	 0	 110	 3	 1.12	 0.95;
	 29	 1	 2.27	 0.3	 0	 0	 1	 1.035	 0	 110	 3	 1.12	 0.95;
	 30	 1	 0	 0	 0	 0	 1	 1.035	 0	 110	 3	 1.12	 0.95;
	 31	 1	 6.7	 0.97	 0	 0	 1	 1.035	 0	 110	 3	 1.12	 0.95;
	 32	 1	 2.77	 0.92	 0	 0	 1	 1.035	 0	 110	 3	 1.12	 0.95;
	 33	 1	 4.79	 0.1	 0	 0	 1	 1.035	 0	 110	 3	 1.12	 0.95;
	 34	 1	 8.57	 0.5	 0	 0	 1	 1.035	 0	 110	 3	 1.12	 0.95;
	 35	 1	 0.25	 0.25	 0	 0	 1	 1.035	 0	 110	 3	 1.12	 0.95;
	 36	 1	 0.63	 0.25	 0	 0	 1	 1.035	 0	 110	 3	 1.12	 0.95;
	 37	 1	 5.88	-0.06	 0	 0	 1	 1.035	 0	 110	 3	 1.12	 0.95;
	 38	 1	 5.56	 2.3	 0	 0	 1	 1.035	 0	 110	 3	 1.12	 0.95;
	 39	 1	 5.55	 2.26	 0	 0	 1	 1.035	 0	 110	 3	 1.12	 0.95;
	 40	 1	 5.42	 1.5	 0	 0	 1	 1.035	 0	 110	 3	 1.12	 0.95;
	 41	 1	 4.17	-1.1	 0	 0	 1	 1.035	 0	 110	 3	 1.12	 0.95;
	 42	 1	 4.81	 2.23	 0	 0	 1	 1.035	 0	 110	 3	 1.12	 0.95;
	 43	 1	 4.42	 1.9	 0	 0	 1	 1.035	 0	 110	 3	 1.12	 0.95;
	 44	 1	 0	 0	 0	 0	 1	 1.035	 0	 110	 3	 1.12	 0.95;
	 45	 1	 3.92	 2.01	 0	 0	 1	 1.035	 0	 110	 3	 1.12	 0.95;
	 46	 1	 3.28	 0.6	 0	 0	 1	 1.035	 0	 110	 3	 1.12	 0.95;
	 47	 1	 9.71	 1.91	 0	 0	 1	 1.035	 0	 110	 3	 1.12	 0.95;
	 48	 1	 0.63	 0.2	 0	 0	 1	 1.035	 0	 110	 3	 1.12	 0.95;
	 49	 1	 0.63	 0.2	 0	 0	 1	 1.035	 0	 110	 3	 1.12	 0.95;
	 50	 1	 3.28	 1.14	 0	 0	 1	 1.035	 0	 110	 3	 1.12	 0.95;
	 51	 1	 2.77	 0.41	 0	 0	 1	 1.035	 0	 110	 3	 1.12	 0.95;
	 52	 1	 27.16	 9.5	 0	 0	 1	 1.035	 0	 110	 3	 1.12	 0.95;
	 53	 2	 27.18	 9.52	 0	 0	 1	 1.035	 0	 110	 3	 1.12	 0.95;
	 54	 1	 5.68	 1.71	 0	 0	 1	 1.035	 0	 110	 3	 1.12	 0.95;
	 55	 1	 1.26	 0.3	 0	 0	 1	 1.035	 0	 110	 3	 1.12	 0.95;
	 56	 1	 0	 0	 0	 0	 1	 1.035	 0	 110	 3	 1.12	 0.95;
	 57	 1	 10.34	 3.61	 0	 0	 1	 1.035	 0	 110	 3	 1.12	 0.95;
	 58	 1	 6.06	 1.1	 0	 0	 1	 1.035	 0	 110	 3	 1.12	 0.95;
	 59	 1	 0	 0	 0	 0	 1	 1.035	 0	 110	 3	 1.12	 0.95;
	 60	 1	 15.06	 5.84	 0	 0	 1	 1.035	 0	 110	 3	 1.12	 0.95;
	 61	 1	 0	 0	 0	 0	 1	 1.035	 0	 110	 3	 1.12	 0.95;
	 62	 1	 5.94	 1.14	 0	 0	 1	 1.035	 0	 110	 3	 1.12	 0.95;
	 63	 1	 3.28	 1.14	 0	 0	 1	 1.035	 0	 110	 3	 1.12	 0.95;
	 64	 1	 4.3	 1.28	 0	 0	 1	 1.035	 0	 110	 3	 1.12	 0.95;
	 65	 1	 5.17	 0.64	 0	 0	 1	 1.035	 0	 110	 3	 1.12	 0.95;
	 66	 1	 5.94	 1.23	 0	 0	 1	 1.035	 0	 110	 3	 1.12	 0.95;
	 67	 1	 2.4	 0.35	 0	 0	 1	 1.035	 0	 110	 3	 1.12	 0.95;
	 68	 1	 2.53	 0.3	 0	 0	 1	 1.035	 0	 110	 3	 1.12	 0.95;
	 69	 1	 4.43	 1.83	 0	 0	 1	 1.035	 0	 110	 3	 1.12	 0.95;
	 70	 1	 8.47	 0.11	 0	 0	 1	 1.035	 0	 110	 3	 1.12	 0.95;
	 71	 1	 6.32	 0.74	 0	 0	 1	 1.035	 0	 110	 3	 1.12	 0.95;
	 72	 1	 2.4	 1.31	 0	 0	 1	 1.035	 0	 110	 3	 1.12	 0.95;
	 73	 1	 2.35	-0.28	 0	 0	 1	 1.035	 0	 110	 3	 1.12	 0.95;
	 74	 1	 10.47	 1.81	 0	 0	 1	 1.035	 0	 110	 3	 1.12	 0.95;
	 75	 1	 0	 0	 0	 0	 1	 1.035	 0	 110	 3	 1.12	 0.95;
	 76	 1	 0	 0	 0	 0	 1	 1.035	 0	 110	 3	 1.12	 0.95;
	 77	 1	 0	 0	 0	 0	 1	 1.035	 0	 110	 3	 1.12	 0.95;
	 78	 1	 1.51	 0.47	 0	 0	 1	 1.035	 0	 110	 3	 1.12	 0.95;
	 79	 1	 2.14	-0.2	 0	 0	 1	 1.035	 0	 110	 3	 1.12	 0.95;
	 80	 1	 8.86	 1.88	 0	 0	 1	 1.035	 0	 110	 3	 1.12	 0.95;
	 81	 1	 3.79	 0.4	 0	 0	 1	 1.035	 0	 110	 3	 1.12	 0.95;
	 82	 1	 0	 0	 0	 0	 1	 1.035	 0	 110	 3	 1.12	 0.95;
	 83	 1	 1.6	-0.2	 0	 0	 1	 1.035	 0	 110	 3	 1.12	 0.95;
	 84	 1	 0	 0	 0	 0	 1	 1.035	 0	 110	 3	 1.12	 0.95;
	 85	 1	 0	 0	 0	 0	 1	 1.035	 0	 110	 3	 1.12	 0.95;
	 86	 1	 6.18	 1.61	 0	 0	 1	 1.035	 0	 110	 3	 1.12	 0.95;
	 87	 1	 3.79	 0.67	 0	 0	 1	 1.035	 0	 110	 3	 1.12	 0.95;
	 88	 1	 0	 0	 0	 0	 1	 1.035	 0	 110	 3	 1.12	 0.95;
	 89	 1	 5.44	 2.82	 0	 0	 1	 1.035	 0	 110	 3	 1.12	 0.95;
	 90	 1	 0	 0	 0	 0	 1	 1.035	 0	 110	 3	 1.12	 0.95;
	 91	 1	 3.03	 1.31	 0	 0	 1	 1.035	 0	 110	 3	 1.12	 0.95;
	 92	 1	 0	 0	 0	 0	 1	 1.035	 0	 110	 3	 1.12	 0.95;
	 93	 1	 2.02	 0.6	 0	 0	 1	 1.035	 0	 110	 3	 1.12	 0.95;
	 94	 1	 0.51	 0.03	 0	 0	 1	 1.035	 0	 110	 3	 1.12	 0.95;
	 95	 1	 0	 0	 0	 0	 1	 1.035	 0	 110	 3	 1.12	 0.95;
	 96	 1	 7.95	 0.7	 0	 0	 1	 1.035	 0	 110	 3	 1.12	 0.95;
	 97	 1	 6.68	 1.71	 0	 0	 1	 1.035	 0	 110	 3	 1.12	 0.95;
	 98	 1	 1.51	 0.37	 0	 0	 1	 1.035	 0	 110	 3	 1.12	 0.95;
	 99	 1	 1.26	 0.06	 0	 0	 1	 1.035	 0	 110	 3	 1.12	 0.95;
	 100	 1	 7.07	 2	 0	 0	 1	 1.035	 0	 110	 3	 1.12	 0.95;
	 101	 1	 3.66	 0.8	 0	 0	 1	 1.035	 0	 110	 3	 1.12	 0.95;
	 102	 1	 6.57	 0.65	 0	 0	 1	 1.035	 0	 110	 3	 1.12	 0.95;
	 103	 1	 12.4	 2.26	 0	 0	 1	 1.035	 0	 110	 3	 1.12	 0.95;
	 104	 1	 2.15	 0.7	 0	 0	 1	 1.035	 0	 110	 3	 1.12	 0.95;
	 105	 1	 0	 0	 0	 0	 1	 1.035	 0	 110	 3	 1.12	 0.95;
	 106	 1	 0	 0	 0	 0	 1	 1.035	 0	 110	 3	 1.12	 0.95;
	 107	 1	 3.64	-0.64	 0	 0	 1	 1.035	 0	 110	 3	 1.12	 0.95;
	 108	 1	 5.18	 2.02	 0	 0	 1	 1.035	 0	 110	 3	 1.12	 0.95;
	 109	 1	 4.92	 2.73	 0	 0	 1	 1.035	 0	 110	 3	 1.12	 0.95;
	 110	 1	 12.76	 3.12	 0	 0	 1	 1.035	 0	 110	 3	 1.12	 0.95;
	 111	 1	 10.36	 1.83	 0	 0	 1	 1.035	 0	 110	 3	 1.12	 0.95;
	 112	 1	 5.3	 1.83	 0	 0	 1	 1.035	 0	 110	 3	 1.12	 0.95;
	 113	 1	 3.4	 0.85	 0	 0	 1	 1.035	 0	 110	 3	 1.12	 0.95;
	 114	 1	 3.92	 1.45	 0	 0	 1	 1.035	 0	 110	 3	 1.12	 0.95;
	 115	 1	 14.62	 4.36	 0	 0	 1	 1.035	 0	 110	 4	 1.12	 0.95;
	 116	 1	 26.31	 7.3	 0	 0	 1	 1.035	 0	 110	 4	 1.12	 0.95;
	 117	 1	 4.83	 0.2	 0	 0	 1	 1.035	 0	 110	 4	 1.12	 0.95;
	 118	 2	 40	 0	 0	 0	 0	 1	 0	 400	 0	 1.05	 0.95;
];

mpc_regionR1.gen = [
%	bus         Pg          Qg          Qmax        Qmin        Vg          mBase       status      Pmax        Pmin        Pc1         Pc2         Qc1min      Qc1max      Qc2min      Qc2max      ramp_agc    ramp_10     ramp_30     ramp_q      apf         
	 1	 260	 0	 215	-215	 1	 426	 1	 430	 90;
	 1	 168.5	 44	 212	-124	 1	 435	 1	 247	 90;
	 16	 144	 58.5	 216	-99	 1.035	 426	 1	 198	 90;
	 17	 162.5	 34.5	 187	-118	 1.035	 426	 1	 235	 90;
	 53	 0	 0	 76	-76	 1.035	 18	 0	 151	 0;
	 53	 26.5	 0	 27	-27	 1.035	 32	 1	 53	 0;
	 53	 105.5	 0	 106	-106	 1.035	 25	 1	 211	 0;
	 118	 0	 0	 150	-150	 1	 110	 1	 0	 0;
];

mpc_regionR1.branch = [
%	fbus        tbus        r           x           b           rateA       rateB       rateC       ratio       angle       status      angmin      angmax      
	 2	 118	 0.00293	 0.03054	 0.95472	 755	 755	 755	 0	 0	 1	-30	 30;
	 3	 4	 0.0057	 0.04149	 0.06617	 341	 341	 341	 0	 0	 1	-30	 30;
	 16	 1	 0.00155	 0.06268	-0.00992	 250	 250	 250	 1.03418	 0	 1	-30	 30;
	 17	 1	 0.00155	 0.06288	-0.00992	 250	 250	 250	 1.03622	 0	 1	-30	 30;
	 33	 3	 0.0016	 0.06694	-0.0031	 160	 160	 160	 1.06383	 0	 1	-30	 30;
	 34	 3	 0.00153	 0.0666	-0.00319	 160	 160	 160	 1.04762	 0	 1	-30	 30;
	 117	 40	 0.07025	 0.12066	 0.0129	 39	 39	 39	 0	 0	 1	-30	 30;
	 44	 115	 0.0405	 0.05041	 0.00719	 57	 57	 57	 0	 0	 1	-30	 30;
	 15	 64	 0.03612	 0.04438	 0.00878	 39	 39	 39	 0	 0	 1	-30	 30;
	 14	 15	 0	 8e-05	 1e-05	 29	 29	 29	 0	 0	 1	-30	 30;
	 112	 19	 0.01959	 0.04818	 0.00609	 39	 39	 39	 0	 0	 1	-30	 30;
	 62	 43	 0.02182	 0.06149	 0.00827	 39	 39	 39	 0	 0	 1	-30	 30;
	 81	 43	 0.03628	 0.06727	 0.00769	 39	 39	 39	 0	 0	 1	-30	 30;
	 95	 63	 0.01479	 0.02455	 0.00298	 39	 39	 39	 0	 0	 1	-30	 30;
	 94	 18	 0.02678	 0.05975	 0.00764	 39	 39	 39	 0	 0	 1	-30	 30;
	 80	 68	 0.03198	 0.10364	 0.01064	 62	 62	 62	 0	 0	 1	-30	 30;
	 30	 28	 0	 8e-05	 0	 39	 39	 39	 0	 0	 1	-30	 30;
	 84	 30	 0.01612	 0.02347	 0.00336	 39	 39	 39	 0	 0	 1	-30	 30;
	 34	 84	 0.04752	 0.09182	 0.00916	 39	 39	 39	 0	 0	 1	-30	 30;
	 90	 37	 0.03041	 0.05322	 0.00508	 39	 39	 39	 0	 0	 1	-30	 30;
	 114	 90	 0.09893	 0.17769	 0.01704	 39	 39	 39	 0	 0	 1	-30	 30;
	 89	 90	 0.00198	 0.00314	 0.00037	 19	 19	 19	 0	 0	 1	-30	 30;
	 54	 113	 0.01355	 0.02826	 0.00271	 39	 39	 39	 0	 0	 1	-30	 30;
	 99	 9	 0.02289	 0.05793	 0.00612	 50	 50	 50	 0	 0	 1	-30	 30;
	 96	 9	 0.02479	 0.06264	 0.00663	 50	 50	 50	 0	 0	 1	-30	 30;
	 114	 24	 0.02273	 0.07314	 0.00765	 62	 62	 62	 0	 0	 1	-30	 30;
	 52	 9	 0.01479	 0.04587	 0.00508	 50	 50	 50	 0	 0	 1	-30	 30;
	 85	 40	 0.04901	 0.08405	 0.00831	 39	 39	 39	 0	 0	 1	-30	 30;
	 33	 85	 0.04752	 0.09182	 0.00916	 39	 39	 39	 0	 0	 1	-30	 30;
	 83	 85	 0.0062	 0.01066	 0.00104	 39	 39	 39	 0	 0	 1	-30	 30;
	 6	 23	 0.01802	 0.05174	 0.00682	 57	 57	 57	 0	 0	 1	-30	 30;
	 37	 6	 0.0124	 0.03595	 0.00461	 57	 57	 57	 0	 0	 1	-30	 30;
	 6	 5	 0.01653	 0.02579	 0.0031	 19	 19	 19	 0	 0	 1	-30	 30;
	 37	 65	 0.01264	 0.02372	 0.00377	 39	 39	 39	 0	 0	 1	-30	 30;
	 34	 32	 0.00661	 0.02124	 0.00222	 105	 105	 105	 0	 0	 1	-30	 30;
	 39	 33	 0.01636	 0.0524	 0.00553	 105	 105	 105	 0	 0	 1	-30	 30;
	 66	 33	 0.02066	 0.04909	 0.0103	 39	 39	 39	 0	 0	 1	-30	 30;
	 20	 34	 0.00132	 0.00231	 0.00024	 39	 39	 39	 0	 0	 1	-30	 30;
	 21	 33	 0.00074	 0.00223	 0.00025	 57	 57	 57	 0	 0	 1	-30	 30;
	 77	 34	 0.02843	 0.06868	 0.00659	 39	 39	 39	 0	 0	 1	-30	 30;
	 113	 77	 0.0376	 0.06537	 0.00643	 39	 39	 39	 0	 0	 1	-30	 30;
	 77	 75	 0.00331	 0.00562	 0.00057	 19	 19	 19	 0	 0	 1	-30	 30;
	 114	 46	 0.03818	 0.0662	 0.00648	 39	 39	 39	 0	 0	 1	-30	 30;
	 76	 33	 0.02843	 0.06868	 0.00659	 39	 39	 39	 0	 0	 1	-30	 30;
	 47	 76	 0.00521	 0.0086	 0.00095	 39	 39	 39	 0	 0	 1	-30	 30;
	 76	 74	 0.00331	 0.00562	 0.00057	 19	 19	 19	 0	 0	 1	-30	 30;
	 45	 43	 0.0405	 0.06314	 0.00758	 39	 39	 39	 0	 0	 1	-30	 30;
	 112	 66	 0.02446	 0.0624	 0.00662	 50	 50	 50	 0	 0	 1	-30	 30;
	 112	 67	 0.02446	 0.0624	 0.00662	 50	 50	 50	 0	 0	 1	-30	 30;
	 13	 51	 0.02479	 0.06579	 0.00654	 50	 50	 50	 0	 0	 1	-30	 30;
	 112	 93	 0.00107	 0.00347	 0.00037	 62	 62	 62	 0	 0	 1	-30	 30;
	 108	 42	 0.03074	 0.04793	 0.00575	 39	 39	 39	 0	 0	 1	-30	 30;
	 53	 113	 0.00248	 0.00752	 0.00079	 50	 50	 50	 0	 0	 1	-30	 30;
	 33	 25	 0.01124	 0.03645	 0.00373	 62	 62	 62	 0	 0	 1	-30	 30;
	 50	 42	 0.00777	 0.02116	 0.00242	 50	 50	 50	 0	 0	 1	-30	 30;
	 109	 61	 0.05	 0.0781	 0.00933	 39	 39	 39	 0	 0	 1	-30	 30;
	 67	 49	 0.02603	 0.0662	 0.00724	 50	 50	 50	 0	 0	 1	-30	 30;
	 79	 60	 0.0424	 0.06628	 0.00792	 39	 39	 39	 0	 0	 1	-30	 30;
	 8	 16	 0.00438	 0.01446	 0.00146	 55	 55	 55	 0	 0	 1	-30	 30;
	 35	 9	 0.03256	 0.10355	 0.01105	 62	 62	 62	 0	 0	 1	-30	 30;
	 97	 66	 0.02537	 0.06355	 0.00677	 50	 50	 50	 0	 0	 1	-30	 30;
	 106	 29	 0.01331	 0.03785	 0.0051	 57	 57	 57	 0	 0	 1	-30	 30;
	 16	 34	 0.01	 0.06967	 0.00747	 172	 172	 172	 0	 0	 1	-30	 30;
	 17	 100	 0.00587	 0.04058	 0.00443	 171	 171	 171	 0	 0	 1	-30	 30;
	 26	 31	 0.00628	 0.01959	 0.0022	 105	 105	 105	 0	 0	 1	-30	 30;
	 17	 27	 0.00942	 0.04198	 0.00452	 114	 114	 114	 0	 0	 1	-30	 30;
	 48	 98	 0.00521	 0.0138	 0.00166	 50	 50	 50	 0	 0	 1	-30	 30;
	 103	 31	 0.00306	 0.00702	 0.00073	 39	 39	 39	 0	 0	 1	-30	 30;
	 102	 32	 0.00306	 0.00694	 0.00072	 39	 39	 39	 0	 0	 1	-30	 30;
	 78	 7	 0.03306	 0.05388	 0.00644	 39	 39	 39	 0	 0	 1	-30	 30;
	 86	 10	 0.01777	 0.05802	 0.00587	 57	 57	 57	 0	 0	 1	-30	 30;
	 66	 12	 0.02248	 0.05165	 0.00652	 50	 50	 50	 0	 0	 1	-30	 30;
	 22	 28	 0.01455	 0.04165	 0.00549	 57	 57	 57	 0	 0	 1	-30	 30;
	 73	 37	 0.02992	 0.09198	 0.01059	 62	 62	 62	 0	 0	 1	-30	 30;
	 34	 105	 0.01116	 0.03364	 0.00399	 62	 62	 62	 0	 0	 1	-30	 30;
	 71	 92	 0.03463	 0.10727	 0.01217	 114	 114	 114	 0	 0	 1	-30	 30;
	 88	 16	 0.02107	 0.06851	 0.00701	 114	 114	 114	 0	 0	 1	-30	 30;
	 41	 88	 0.03041	 0.0914	 0.01103	 114	 114	 114	 0	 0	 1	-30	 30;
	 87	 88	 0.01512	 0.0495	 0.005	 114	 114	 114	 0	 0	 1	-30	 30;
	 91	 17	 0.01471	 0.04612	 0.00511	 114	 114	 114	 0	 0	 1	-30	 30;
	 56	 40	 0.01074	 0.01752	 0.00207	 78	 78	 78	 0	 0	 1	-30	 30;
	 70	 56	 0.00446	 0.01281	 0.00169	 78	 78	 78	 0	 0	 1	-30	 30;
	 55	 56	 0.00074	 0.00116	 0.00014	 78	 78	 78	 0	 0	 1	-30	 30;
	 101	 33	 0.00463	 0.03207	 0.00353	 171	 171	 171	 0	 0	 1	-30	 30;
	 111	 38	 0.00339	 0.00975	 0.00127	 105	 105	 105	 0	 0	 1	-30	 30;
	 16	 110	 0.00331	 0.02273	 0.00246	 114	 114	 114	 0	 0	 1	-30	 30;
	 66	 16	 0.03438	 0.11231	 0.01135	 114	 114	 114	 0	 0	 1	-30	 30;
	 67	 17	 0.03438	 0.1124	 0.01135	 114	 114	 114	 0	 0	 1	-30	 30;
	 104	 36	 0.01702	 0.0519	 0.00604	 62	 62	 62	 0	 0	 1	-30	 30;
	 41	 28	 0.04719	 0.07769	 0.00864	 39	 39	 39	 0	 0	 1	-30	 30;
	 11	 37	 0.01364	 0.04455	 0.00453	 57	 57	 57	 0	 0	 1	-30	 30;
	 57	 66	 0.00099	 0.0019	 0.01669	 93	 93	 93	 0	 0	 1	-30	 30;
	 58	 67	 0.00099	 0.0019	 0.01646	 93	 93	 93	 0	 0	 1	-30	 30;
	 59	 66	 0.00124	 0.00231	 0.0206	 92	 92	 92	 0	 0	 1	-30	 30;
	 116	 115	 0.02983	 0.05463	 0.00552	 59	 59	 59	 0	 0	 1	-30	 30;
	 2	 1	 1e-05	 6e-05	 0	 581	 581	 581	 0	 0	 1	-30	 30;
	 8	 7	 8e-05	 0.00083	 0	 208	 208	 208	 0	 0	 1	-30	 30;
	 11	 10	 8e-05	 0.00083	 0	 208	 208	 208	 0	 0	 1	-30	 30;
	 13	 12	 8e-05	 0.00083	 0	 208	 208	 208	 0	 0	 1	-30	 30;
	 19	 18	 8e-05	 0.00083	 0	 208	 208	 208	 0	 0	 1	-30	 30;
	 23	 22	 8e-05	 0.00083	 0	 208	 208	 208	 0	 0	 1	-30	 30;
	 25	 24	 8e-05	 0.00083	 0	 208	 208	 208	 0	 0	 1	-30	 30;
	 27	 26	 8e-05	 0.00083	 0	 208	 208	 208	 0	 0	 1	-30	 30;
	 29	 28	 8e-05	 0.00083	 0	 208	 208	 208	 0	 0	 1	-30	 30;
	 32	 31	 8e-05	 0.00083	 0	 208	 208	 208	 0	 0	 1	-30	 30;
	 36	 35	 8e-05	 0.00083	 0	 208	 208	 208	 0	 0	 1	-30	 30;
	 39	 38	 8e-05	 0.00083	 0	 208	 208	 208	 0	 0	 1	-30	 30;
	 41	 40	 8e-05	 0.00083	 0	 208	 208	 208	 0	 0	 1	-30	 30;
	 43	 42	 8e-05	 0.00083	 0	 208	 208	 208	 0	 0	 1	-30	 30;
	 45	 44	 8e-05	 0.00083	 0	 208	 208	 208	 0	 0	 1	-30	 30;
	 47	 46	 8e-05	 0.00083	 0	 208	 208	 208	 0	 0	 1	-30	 30;
	 49	 48	 8e-05	 0.00083	 0	 208	 208	 208	 0	 0	 1	-30	 30;
	 51	 50	 8e-05	 0.00083	 0	 208	 208	 208	 0	 0	 1	-30	 30;
	 53	 52	 8e-05	 0.00083	 0	 208	 208	 208	 0	 0	 1	-30	 30;
	 61	 60	 8e-05	 0.00083	 0	 208	 208	 208	 0	 0	 1	-30	 30;
	 63	 62	 8e-05	 0.00083	 0	 208	 208	 208	 0	 0	 1	-30	 30;
	 65	 64	 8e-05	 0.00083	 0	 208	 208	 208	 0	 0	 1	-30	 30;
	 69	 68	 8e-05	 0.00083	 0	 208	 208	 208	 0	 0	 1	-30	 30;
	 71	 70	 8e-05	 0.00083	 0	 208	 208	 208	 0	 0	 1	-30	 30;
	 73	 72	 8e-05	 0.00083	 0	 208	 208	 208	 0	 0	 1	-30	 30;
	 79	 78	 8e-05	 0.00083	 0	 208	 208	 208	 0	 0	 1	-30	 30;
	 81	 80	 8e-05	 0.00083	 0	 208	 208	 208	 0	 0	 1	-30	 30;
	 83	 82	 8e-05	 0.00083	 0	 208	 208	 208	 0	 0	 1	-30	 30;
	 92	 91	 8e-05	 0.00083	 0	 208	 208	 208	 0	 0	 1	-30	 30;
	 95	 94	 8e-05	 0.00083	 0	 208	 208	 208	 0	 0	 1	-30	 30;
	 97	 96	 8e-05	 0.00083	 0	 208	 208	 208	 0	 0	 1	-30	 30;
	 99	 98	 8e-05	 0.00083	 0	 208	 208	 208	 0	 0	 1	-30	 30;
	 101	 100	 8e-05	 0.00083	 0	 208	 208	 208	 0	 0	 1	-30	 30;
	 105	 104	 8e-05	 0.00083	 0	 208	 208	 208	 0	 0	 1	-30	 30;
	 107	 106	 8e-05	 0.00083	 0	 208	 208	 208	 0	 0	 1	-30	 30;
	 109	 108	 8e-05	 0.00083	 0	 208	 208	 208	 0	 0	 1	-30	 30;
	 111	 110	 8e-05	 0.00083	 0	 208	 208	 208	 0	 0	 1	-30	 30;
	 114	 113	 8e-05	 0.00083	 0	 208	 208	 208	 0	 0	 1	-30	 30;
];

mpc_regionR1.gencost = [
%	2           startup     shutdown    n           c(n-1)...c0 
	 2	 0	 0	 3	 0	 126.62	 0;
	 2	 0	 0	 3	 0	 126.62	 0;
	 2	 0	 0	 3	 0	 126.62	 0;
	 2	 0	 0	 3	 0	 126.62	 0;
	 2	 0	 0	 3	 0	 0	 0;
	 2	 0	 0	 3	 0	 0	 0;
	 2	 0	 0	 3	 0	 0	 0;
	 2	 0	 0	 3	 0	 0	 0;
];


% -------------------- mpc_regionR2 --------------------

mpc_regionR2.version = '2';
mpc_regionR2.baseMVA = 100.0000;
mpc_regionR2.bus = [
%	bus_i       type        Pd          Qd          Gs          Bs          area        Vm          Va          baseKV      zone        Vmax        Vmin        
	 1	 1	 0	 0	 0	 0	 1	 1.03	 0	 220	 4	 1.11	 0.95;
	 2	 1	 0	 0	 0	 0	 1	 1.03	 0	 220	 4	 1.11	 0.95;
	 3	 1	 0	 0	 0	 0	 1	 1.03	 0	 220	 4	 1.11	 0.95;
	 4	 1	 0	 0	 0	 0	 1	 1.03	 0	 220	 4	 1.11	 0.95;
	 5	 1	 0	 0	 0	 0	 1	 1.03	 0	 220	 4	 1.11	 0.95;
	 6	 1	 0	 0	 0	 0	 1	 1	 0	 400	 4	 1.05	 0.95;
	 7	 1	 0	 0	 0	 0	 1	 1	 0	 400	 4	 1.05	 0.95;
	 8	 1	 0	 0	 0	 0	 1	 1.03	 0	 220	 4	 1.11	 0.95;
	 9	 1	 0	 0	 0	 0	 1	 1.03	 0	 220	 4	 1.11	 0.95;
	 10	 1	 0	 0	 0	 0	 1	 1.03	 0	 220	 4	 1.11	 0.95;
	 11	 2	 36.01	 64.2	 0	 0	 1	 1.03	 0	 220	 4	 1.11	 0.95;
	 12	 2	 69.55	 96	 0	 0	 1	 1.03	 0	 220	 4	 1.11	 0.95;
	 13	 1	 0	 0	 0	 0	 1	 1.03	 0	 220	 4	 1.11	 0.95;
	 14	 2	 31.29	 64.2	 0	 0	 1	 1	 0	 400	 4	 1.05	 0.95;
	 15	 1	 0	 0	 0	 0	 1	 1	 0	 400	 4	 1.05	 0.95;
	 16	 1	 0	 0	 0	 0	 1	 1	 0	 400	 4	 1.05	 0.95;
	 17	 1	 0	 0	 0	 0	 1	 1	 0	 400	 4	 1.05	 0.95;
	 18	 1	 0	 0	 0	 0	 1	 1.03	 0	 220	 4	 1.11	 0.95;
	 19	 1	 0	 0	 0	 0	 1	 1.03	 0	 220	 4	 1.11	 0.95;
	 20	 1	 0	 0	 0	 0	 1	 1.03	 0	 220	 4	 1.11	 0.95;
	 21	 1	 0	 0	 0	 0	 1	 1.03	 0	 220	 4	 1.11	 0.95;
	 22	 1	 0	 0	 0	 0	 1	 1.03	 0	 220	 4	 1.11	 0.95;
	 23	 1	 0	 0	 0	 0	 1	 1.03	 0	 220	 4	 1.11	 0.95;
	 24	 1	 0	 0	 0	 0	 1	 1.03	 0	 220	 4	 1.11	 0.95;
	 25	 1	 0	 0	 0	 0	 1	 1.03	 0	 220	 4	 1.11	 0.95;
	 26	 1	 9.84	 2.46	 0	 0	 1	 1.035	 0	 110	 4	 1.12	 0.95;
	 27	 1	 0	 0	 0	 0	 1	 1.035	 0	 110	 4	 1.12	 0.95;
	 28	 1	 61.47	 21.23	 0	 0	 1	 1.035	 0	 110	 4	 1.12	 0.95;
	 29	 1	 5.64	 1.27	 0	 0	 1	 1.035	 0	 110	 4	 1.12	 0.95;
	 30	 2	 5.66	 1.28	 0	 0	 1	 1.035	 0	 110	 4	 1.12	 0.95;
	 31	 1	 10.43	 2.53	 0	 0	 1	 1.035	 0	 110	 4	 1.12	 0.95;
	 32	 1	 7.25	 0.12	 0	 0	 1	 1.035	 0	 110	 4	 1.12	 0.95;
	 33	 2	 4.31	 0.13	 0	 0	 1	 1.035	 0	 110	 4	 1.12	 0.95;
	 34	 1	 5.29	 0.37	 0	 0	 1	 1.035	 0	 110	 4	 1.12	 0.95;
	 35	 1	 3.93	 1.18	 0	 0	 1	 1.035	 0	 110	 4	 1.12	 0.95;
	 36	 1	 12.67	 2.93	 0	 0	 1	 1.035	 0	 110	 4	 1.12	 0.95;
	 37	 1	 7.99	 0.53	 0	 0	 1	 1.035	 0	 110	 4	 1.12	 0.95;
	 38	 1	 14.75	 1.06	 0	 0	 1	 1.035	 0	 110	 4	 1.12	 0.95;
	 39	 1	 15.5	 0.84	 0	 0	 1	 1.035	 0	 110	 4	 1.12	 0.95;
	 40	 1	 6.38	 1.58	 0	 0	 1	 1.035	 0	 110	 4	 1.12	 0.95;
	 41	 2	 5.54	 0.54	 0	 0	 1	 1.035	 0	 110	 4	 1.12	 0.95;
	 42	 1	 4.91	 0.84	 0	 0	 1	 1.035	 0	 110	 4	 1.12	 0.95;
	 43	 2	 8.87	 1.19	 0	 0	 1	 1.035	 0	 110	 4	 1.12	 0.95;
	 44	 1	 0	 0	 0	 0	 1	 1.035	 0	 110	 4	 1.12	 0.95;
	 45	 2	 2.08	-0.61	 0	 0	 1	 1.035	 0	 110	 4	 1.12	 0.95;
	 46	 2	 7.93	 6.52	 0	 0	 1	 1.035	 0	 110	 4	 1.12	 0.95;
	 47	 1	 2.95	 0.11	 0	 0	 1	 1.035	 0	 110	 4	 1.12	 0.95;
	 48	 1	 12.2	 1.58	 0	 0	 1	 1.035	 0	 110	 4	 1.12	 0.95;
	 49	 1	 0	 0	 0	 0	 1	 1.035	 0	 110	 4	 1.12	 0.95;
	 50	 1	 0	 0	 0	 0	 1	 1.035	 0	 110	 4	 1.12	 0.95;
	 51	 1	 0	 0	 0	 0	 1	 1.035	 0	 110	 4	 1.12	 0.95;
	 52	 1	 0	 0	 0	 0	 1	 1.035	 0	 110	 4	 1.12	 0.95;
	 53	 1	 3.07	 1.05	 0	 0	 1	 1.035	 0	 110	 4	 1.12	 0.95;
	 54	 1	 4.43	 0.94	 0	 0	 1	 1.035	 0	 110	 4	 1.12	 0.95;
	 55	 1	 8.36	 1.72	 0	 0	 1	 1.035	 0	 110	 4	 1.12	 0.95;
	 56	 1	 12.29	 1.85	 0	 0	 1	 1.035	 0	 110	 4	 1.12	 0.95;
	 57	 2	 9	 2.1	 0	 0	 1	 1.035	 0	 110	 4	 1.12	 0.95;
	 58	 1	 9.46	 4.41	 0	 0	 1	 1.035	 0	 110	 4	 1.12	 0.95;
	 59	 1	 3.81	 0.21	 0	 0	 1	 1.035	 0	 110	 4	 1.12	 0.95;
	 60	 1	 4.43	 1.18	 0	 0	 1	 1.035	 0	 110	 4	 1.12	 0.95;
	 61	 1	 0	 0	 0	 0	 1	 1.035	 0	 110	 4	 1.12	 0.95;
	 62	 2	 44.55	 6.71	 0	 0	 1	 1.035	 0	 110	 4	 1.12	 0.95;
	 63	 1	 1.84	 0.37	 0	 0	 1	 1.035	 0	 110	 4	 1.12	 0.95;
	 64	 1	 1.84	 0.37	 0	 0	 1	 1.035	 0	 110	 4	 1.12	 0.95;
	 65	 1	 8.12	 2.2	 0	 0	 1	 1.035	 0	 110	 4	 1.12	 0.95;
	 66	 2	 29.47	 8.44	 0	 0	 1	 1.035	 0	 110	 4	 1.12	 0.95;
	 67	 1	 29.46	 8.43	 0	 0	 1	 1.035	 0	 110	 4	 1.12	 0.95;
	 68	 1	 23.04	 7.58	 0	 0	 1	 1.035	 0	 110	 4	 1.12	 0.95;
	 69	 1	 46.09	 15.16	 0	 0	 1	 1.035	 0	 110	 4	 1.12	 0.95;
	 70	 2	 13.54	 6.86	 0	 0	 1	 1.035	 0	 110	 4	 1.12	 0.95;
	 71	 1	 13.53	 6.85	 0	 0	 1	 1.035	 0	 110	 4	 1.12	 0.95;
	 72	 1	 4.39	 1.2	 0	 0	 1	 1.035	 0	 110	 4	 1.12	 0.95;
	 73	 1	 4.39	 1.2	 0	 0	 1	 1.035	 0	 110	 4	 1.12	 0.95;
	 74	 1	 7.63	 2.62	 0	 0	 1	 1.035	 0	 110	 4	 1.12	 0.95;
	 75	 1	 12.29	 2.95	 0	 0	 1	 1.035	 0	 110	 4	 1.12	 0.95;
	 76	 2	 6.78	 0.38	 0	 0	 1	 1.035	 0	 110	 4	 1.12	 0.95;
	 77	 1	 14.98	 2.63	 0	 0	 1	 1.035	 0	 110	 4	 1.12	 0.95;
	 78	 1	 11.11	 1	 0	 0	 1	 1.035	 0	 110	 4	 1.12	 0.95;
	 79	 1	 0	 0	 0	 0	 1	 1.035	 0	 110	 4	 1.12	 0.95;
	 80	 1	 11.65	 2.64	 0	 0	 1	 1.035	 0	 110	 4	 1.12	 0.95;
	 81	 2	 19.35	 0.03	 0	 0	 1	 1.035	 0	 110	 4	 1.12	 0.95;
	 82	 2	 19.2	 5.8	 0	 0	 1	 1.035	 0	 110	 4	 1.12	 0.95;
	 83	 1	 4.3	 1.05	 0	 0	 1	 1.035	 0	 110	 4	 1.12	 0.95;
	 84	 1	 3.93	 1.27	 0	 0	 1	 1.035	 0	 110	 4	 1.12	 0.95;
	 85	 2	 6.74	 1.87	 0	 0	 1	 1.035	 0	 110	 4	 1.12	 0.95;
	 86	 2	 22.16	 6.81	 0	 0	 1	 1.035	 0	 110	 4	 1.12	 0.95;
	 87	 1	 6.88	 2	 0	 0	 1	 1.035	 0	 110	 4	 1.12	 0.95;
	 88	 2	 8.49	 2.59	 0	 0	 1	 1.035	 0	 110	 4	 1.12	 0.95;
	 89	 1	 14.62	 4.36	 0	 0	 1	 1.035	 0	 110	 4	 1.12	 0.95;
	 90	 1	 7.12	 2.31	 0	 0	 1	 1.035	 0	 110	 4	 1.12	 0.95;
	 91	 1	 0	 0	 0	 0	 1	 1.035	 0	 110	 4	 1.12	 0.95;
	 92	 1	 0	 0	 0	 0	 1	 1.035	 0	 110	 4	 1.12	 0.95;
	 93	 2	 14.31	 3.64	 0	 0	 1	 1.035	 0	 110	 4	 1.12	 0.95;
	 94	 1	 14.3	 3.63	 0	 0	 1	 1.035	 0	 110	 4	 1.12	 0.95;
	 95	 1	 14.3	 3.63	 0	 0	 1	 1.035	 0	 110	 4	 1.12	 0.95;
	 96	 1	 9.22	 2.42	 0	 0	 1	 1.035	 0	 110	 4	 1.12	 0.95;
	 97	 1	 3.93	 0.79	 0	 0	 1	 1.035	 0	 110	 4	 1.12	 0.95;
	 98	 1	 3.93	 0.79	 0	 0	 1	 1.035	 0	 110	 4	 1.12	 0.95;
	 99	 1	 3.74	 1.54	 0	 0	 1	 1.035	 0	 110	 4	 1.12	 0.95;
	 100	 1	 3.74	 1.54	 0	 0	 1	 1.035	 0	 110	 4	 1.12	 0.95;
	 101	 1	 11.65	 2.11	 0	 0	 1	 1.035	 0	 110	 4	 1.12	 0.95;
	 102	 2	 18.59	 7.73	 0	 0	 1	 1.035	 0	 110	 4	 1.12	 0.95;
	 103	 1	 0	 0	 0	 0	 1	 1.035	 0	 110	 4	 1.12	 0.95;
	 104	 1	 18.57	 7.72	 0	 0	 1	 1.035	 0	 110	 4	 1.12	 0.95;
	 105	 1	 18.57	 7.72	 0	 0	 1	 1.035	 0	 110	 4	 1.12	 0.95;
	 106	 1	 4.55	 4.11	 0	 0	 1	 1.035	 0	 110	 4	 1.12	 0.95;
	 107	 1	 4.55	 4.11	 0	 0	 1	 1.035	 0	 110	 4	 1.12	 0.95;
	 108	 1	 4.68	 2.63	 0	 0	 1	 1.035	 0	 110	 4	 1.12	 0.95;
	 109	 1	 0	 0	 0	 0	 1	 1.035	 0	 110	 4	 1.12	 0.95;
	 110	 1	 0	 0	 0	 0	 1	 1.035	 0	 110	 4	 1.12	 0.95;
	 111	 1	 33.83	 10.53	 0	 0	 1	 1.035	 0	 110	 4	 1.12	 0.95;
	 112	 1	 33.83	 10.53	 0	 0	 1	 1.035	 0	 110	 4	 1.12	 0.95;
	 113	 1	 8.97	 3.05	 0	 0	 1	 1.035	 0	 110	 4	 1.12	 0.95;
	 114	 1	 6.77	 1.58	 0	 0	 1	 1.035	 0	 110	 4	 1.12	 0.95;
	 115	 1	 0	 0	 0	 0	 1	 1.035	 0	 110	 4	 1.12	 0.95;
	 116	 1	 3.7	 1.32	 0	 0	 1	 1.035	 0	 110	 4	 1.12	 0.95;
	 117	 1	 3.7	 1.32	 0	 0	 1	 1.035	 0	 110	 4	 1.12	 0.95;
	 118	 1	 17.1	 7.79	 0	 0	 1	 1.035	 0	 110	 4	 1.12	 0.95;
	 119	 1	 4.11	 3.48	 0	 0	 1	 1.035	 0	 110	 4	 1.12	 0.95;
	 120	 1	 1.84	 2.11	 0	 0	 1	 1.035	 0	 110	 4	 1.12	 0.95;
	 121	 1	 1.84	 2.11	 0	 0	 1	 1.035	 0	 110	 4	 1.12	 0.95;
	 122	 1	 3.07	 1.05	 0	 0	 1	 1.035	 0	 110	 4	 1.12	 0.95;
	 123	 1	 3.07	 1.05	 0	 0	 1	 1.035	 0	 110	 4	 1.12	 0.95;
	 124	 1	 4.37	 3.27	 0	 0	 1	 1.035	 0	 110	 4	 1.12	 0.95;
	 125	 1	 4.37	 3.26	 0	 0	 1	 1.035	 0	 110	 4	 1.12	 0.95;
	 126	 1	 3.39	 2.58	 0	 0	 1	 1.035	 0	 110	 4	 1.12	 0.95;
	 127	 1	 3.39	 2.58	 0	 0	 1	 1.035	 0	 110	 4	 1.12	 0.95;
	 128	 2	 9.1	 1.9	 0	 0	 1	 1.035	 0	 110	 4	 1.12	 0.95;
	 129	 1	 34.88	 6.62	 0	 0	 1	 1.035	 0	 110	 4	 1.12	 0.95;
	 130	 1	 10.07	 2.73	 0	 0	 1	 1.035	 0	 110	 4	 1.12	 0.95;
	 131	 1	 0	 0	 0	 0	 1	 1.035	 0	 110	 4	 1.12	 0.95;
	 132	 1	 4.43	 1.53	 0	 0	 1	 1.035	 0	 110	 4	 1.12	 0.95;
	 133	 1	 6.77	 2.42	 0	 0	 1	 1.035	 0	 110	 4	 1.12	 0.95;
	 134	 1	 0	 0	 0	 0	 1	 1.035	 0	 110	 4	 1.12	 0.95;
	 135	 2	 6.6	 1.62	 0	 0	 1	 1.035	 0	 110	 4	 1.12	 0.95;
	 136	 1	 6.59	 1.61	 0	 0	 1	 1.035	 0	 110	 4	 1.12	 0.95;
	 137	 1	 0	 0	 0	 0	 1	 1.035	 0	 110	 4	 1.12	 0.95;
	 138	 1	 5.04	 1.18	 0	 0	 1	 1.035	 0	 110	 4	 1.12	 0.95;
	 139	 2	 14.12	 4.23	 0	 0	 1	 1.035	 0	 110	 4	 1.12	 0.95;
	 140	 1	 2.21	 0.42	 0	 0	 1	 1.035	 0	 110	 4	 1.12	 0.95;
	 141	 1	 5.04	 0.12	 0	 0	 1	 1.035	 0	 110	 4	 1.12	 0.95;
	 142	 1	 0	 0	 0	 0	 1	 1.035	 0	 110	 4	 1.12	 0.95;
	 143	 1	 27.06	 0.21	 0	 0	 1	 1.035	 0	 110	 4	 1.12	 0.95;
	 144	 1	 0	 0	 0	 0	 1	 1.035	 0	 110	 4	 1.12	 0.95;
	 145	 1	 13.53	 3.24	 0	 0	 1	 1.035	 0	 110	 4	 1.12	 0.95;
	 146	 1	 12.92	 3.42	 0	 0	 1	 1.035	 0	 110	 4	 1.12	 0.95;
	 147	 1	 12.92	 3.42	 0	 0	 1	 1.035	 0	 110	 4	 1.12	 0.95;
	 148	 1	 10.45	 1.9	 0	 0	 1	 1.035	 0	 110	 4	 1.12	 0.95;
	 149	 1	 9.22	 2.63	 0	 0	 1	 1.035	 0	 110	 4	 1.12	 0.95;
	 150	 1	 9.22	 2.63	 0	 0	 1	 1.035	 0	 110	 4	 1.12	 0.95;
	 151	 1	 11.08	 2	 0	 0	 1	 1.035	 0	 110	 4	 1.12	 0.95;
	 152	 1	 20.91	 5.34	 0	 0	 1	 1.035	 0	 110	 4	 1.12	 0.95;
	 153	 1	 5.53	 1.05	 0	 0	 1	 1.035	 0	 110	 4	 1.12	 0.95;
	 154	 1	 9.94	 2.11	 0	 0	 1	 1.035	 0	 110	 4	 1.12	 0.95;
	 155	 1	 6.15	 1.48	 0	 0	 1	 1.035	 0	 110	 4	 1.12	 0.95;
	 156	 1	 3.07	 0.53	 0	 0	 1	 1.035	 0	 110	 4	 1.12	 0.95;
	 157	 1	 3.15	 0.89	 0	 0	 1	 1.035	 0	 110	 4	 1.12	 0.95;
	 158	 1	 3.15	 0.89	 0	 0	 1	 1.035	 0	 110	 4	 1.12	 0.95;
	 159	 1	 12.91	 4.12	 0	 0	 1	 1.035	 0	 110	 4	 1.12	 0.95;
	 160	 1	 9.29	 1.56	 0	 0	 1	 1.035	 0	 110	 4	 1.12	 0.95;
	 161	 2	 9.3	 1.57	 0	 0	 1	 1.035	 0	 110	 4	 1.12	 0.95;
	 162	 1	 16.24	 2.09	 0	 0	 1	 1.035	 0	 110	 4	 1.12	 0.95;
	 163	 1	 8.35	 1.68	 0	 0	 1	 1.035	 0	 110	 4	 1.12	 0.95;
	 164	 1	 16.58	 2.1	 0	 0	 1	 1.035	 0	 110	 4	 1.12	 0.95;
	 165	 1	 0	 0	 0	 0	 1	 1.035	 0	 110	 4	 1.12	 0.95;
	 166	 1	 8.61	 2.46	 0	 0	 1	 1.035	 0	 110	 4	 1.12	 0.95;
	 167	 1	 8.86	 2.4	 0	 0	 1	 1.035	 0	 110	 4	 1.12	 0.95;
	 168	 1	 6.88	 2.44	 0	 0	 1	 1.035	 0	 110	 4	 1.12	 0.95;
	 169	 2	 21.97	 6.7	 0	 0	 1	 1.035	 0	 110	 4	 1.12	 0.95;
	 170	 1	 25.81	 7.81	 0	 0	 1	 1.035	 0	 110	 4	 1.12	 0.95;
	 171	 2	 14.46	-18.8	 0	 0	 1	 1.035	 0	 110	 4	 1.12	 0.95;
	 172	 1	 0	 0	 0	 0	 1	 1.035	 0	 110	 4	 1.12	 0.95;
	 173	 1	 13.87	 5.05	 0	 0	 1	 1.035	 0	 110	 4	 1.12	 0.95;
	 174	 1	 0	 0	 0	 0	 1	 1.035	 0	 110	 4	 1.12	 0.95;
	 175	 1	 0	 0	 0	 0	 1	 1.035	 0	 110	 4	 1.12	 0.95;
	 176	 1	 4.92	 1.21	 0	 0	 1	 1.035	 0	 110	 4	 1.12	 0.95;
	 177	 1	 4.92	 1.21	 0	 0	 1	 1.035	 0	 110	 4	 1.12	 0.95;
	 178	 1	 3.93	 0.63	 0	 0	 1	 1.035	 0	 110	 4	 1.12	 0.95;
	 179	 1	 3.8	 0.74	 0	 0	 1	 1.035	 0	 110	 4	 1.12	 0.95;
	 180	 1	 5.29	 1.23	 0	 0	 1	 1.035	 0	 110	 4	 1.12	 0.95;
	 181	 1	 7.13	 1.97	 0	 0	 1	 1.035	 0	 110	 4	 1.12	 0.95;
	 182	 1	 11.56	 2.82	 0	 0	 1	 1.035	 0	 110	 4	 1.12	 0.95;
	 183	 1	 8.7	-2.98	 0	 0	 1	 1.035	 0	 110	 4	 1.12	 0.95;
	 184	 1	 0	 0	 0	 0	 1	 1.035	 0	 110	 4	 1.12	 0.95;
	 185	 1	 4.91	 1.18	 0	 0	 1	 1.035	 0	 110	 4	 1.12	 0.95;
	 186	 1	 4.68	 1.6	 0	 0	 1	 1.035	 0	 110	 4	 1.12	 0.95;
	 187	 1	 4.24	 0.58	 0	 0	 1	 1.035	 0	 110	 4	 1.12	 0.95;
	 188	 1	 4.24	 0.58	 0	 0	 1	 1.035	 0	 110	 4	 1.12	 0.95;
	 189	 1	 15.99	 1.26	 0	 0	 1	 1.035	 0	 110	 4	 1.12	 0.95;
	 190	 1	 2.7	 0.21	 0	 0	 1	 1.035	 0	 110	 4	 1.12	 0.95;
	 191	 1	 6.38	 1.05	 0	 0	 1	 1.035	 0	 110	 4	 1.12	 0.95;
	 192	 1	 0	 0	 0	 0	 1	 1.035	 0	 110	 4	 1.12	 0.95;
	 193	 1	 0	 0	 0	 0	 1	 1.035	 0	 110	 4	 1.12	 0.95;
	 194	 2	 10.9	 10.65	 0	 0	 1	 1.035	 0	 110	 4	 1.12	 0.95;
	 195	 1	 10.89	 10.64	 0	 0	 1	 1.035	 0	 110	 4	 1.12	 0.95;
	 196	 1	 3.7	 1.9	 0	 0	 1	 1.035	 0	 110	 4	 1.12	 0.95;
	 197	 2	 31.99	-1.93	 0	 0	 1	 1.035	 0	 110	 4	 1.12	 0.95;
	 198	 1	 0	 0	 0	 0	 1	 1.035	 0	 110	 4	 1.12	 0.95;
	 199	 1	 7.52	 0.52	 0	 0	 1	 1.035	 0	 110	 4	 1.12	 0.95;
	 200	 1	 7.52	 0.52	 0	 0	 1	 1.035	 0	 110	 4	 1.12	 0.95;
...
];

mpc_regionR2.gen = [
%	bus         Pg          Qg          Qmax        Qmin        Vg          mBase       status      Pmax        Pmin        Pc1         Pc2         Qc1min      Qc1max      Qc2min      Qc2max      ramp_agc    ramp_10     ramp_30     ramp_q      apf         
	 11	 168	 0	 142	-142	 1.03	 287	 1	 284	 52;
	 11	 139.5	 13.7	 145	-117.6	 1.03	 264	 1	 232	 47;
	 12	 0	 0	 103	-17	 1.03	 238	 0	 120	 13;
	 12	 94	 27.5	 145	-90	 1.03	 264	 1	 141	 47;
	 12	 102	 18.5	 127	-90	 1.03	 287	 1	 152	 52;
	 12	 119	 17	 127	-93	 1.03	 287	 1	 186	 52;
	 14	 191.5	 0	 162	-162	 1	 238	 1	 323	 60;
	 14	 124	 4.5	 103	-94	 1	 238	 1	 188	 60;
	 30	 37.75	 0	 38	-38	 1.035	 4	 1	 75	 0.5;
	 33	 22	 0	 22	-22	 1.035	 5	 1	 43	 1;
	 41	 23.5	 0	 24	-24	 1.035	 2	 1	 47	 0;
	 43	 30	 0	 30	-30	 1.035	 2	 1	 60	 0;
	 45	 0	 0	 30	-21	 1.035	 50	 0	 42	 7.5;
	 46	 89.75	 0	 86	-86	 1.035	 50	 1	 172	 7.5;
	 57	 48	 0	 48	-48	 1.035	 5	 1	 95	 1;
	 62	 100.25	 0	 100	-100	 1.035	 5	 1	 199	 1.5;
	 66	 41	 0	 40	-40	 1.035	 35	 1	 80	 2;
	 70	 48.5	 0	 48	-48	 1.035	 15	 1	 96	 1;
	 76	 33.5	 0	 34	-34	 1.035	 4	 1	 67	 0;
	 81	 0	 0	 13	-13	 1.035	 5	 0	 25	 1.5;
	 82	 26.75	 0	 27	-27	 1.035	 3	 1	 53	 0.5;
	 85	 0	 0	 26	-26	 1.035	 3	 0	 51	 0;
	 86	 71.25	 0	 71	-71	 1.035	 5	 1	 141	 1.5;
	 88	 14	 0	 14	-14	 1.035	 2	 1	 28	 0;
	 93	 43	 0	 43	-43	 1.035	 11	 1	 85	 1;
	 102	 29.5	 0	 29	-29	 1.035	 11	 1	 57	 2;
	 128	 50.25	 0	 50	-50	 1.035	 5	 1	 99	 1.5;
	 135	 32.25	 0	 32	-32	 1.035	 4	 1	 64	 0.5;
	 139	 24.5	 0	 25	-25	 1.035	 4	 1	 49	 0;
	 161	 82.75	 0	 83	-83	 1.035	 2	 1	 165	 0.5;
	 169	 0	 0	 3.6	-3.6	 1.035	 0	 1	 0	 0;
	 171	 0	 0	 24	-24	 1.035	 4	 0	 47	 1.5;
	 194	 0	 0	 7.2	-7.2	 1.035	 0	 1	 0	 0;
	 197	 42.25	 0	 42	-42	 1.035	 6	 1	 84	 0.5;
	 201	 26	 0	 26	-26	 1.035	 0	 1	 52	 0;
	 202	 23.5	 0	 23	-23	 1.035	 5	 1	 46	 1;
	 205	 15	 0	 15	-15	 1.035	 7	 1	 29	 1;
	 214	 14	 0	 14	-14	 1.035	 2	 1	 28	 0;
	 217	 39	 0	 39	-39	 1.035	 5	 1	 77	 1;
	 221	 27.5	 0	 27	-27	 1.035	 7	 1	 54	 1;
	 222	 27.75	 0	 27	-27	 1.035	 5	 1	 54	 1.5;
	 223	 45.5	 0	 45	-45	 1.035	 5	 1	 90	 1;
	 231	 55.5	 0	 55	-55	 1.035	 5	 1	 110	 1;
	 243	 88	 40	 145	-65	 1.035	 264	 1	 129	 47;
	 249	 0	 0	 30	-27	 1.035	 50	 0	 53	 16;
	 249	 82	 2.5	 70	-65	 1.035	 128	 1	 129	 35;
	 250	 0	 0	 70	-26	 1.035	 128	 0	 52	 35;
	 252	 26.5	 0	 27	-27	 1.035	 8	 1	 53	 0;
	 253	 8.5	 0	 13.2	-13.2	 1.035	 12	 1	 16	 1;
	 257	 60	 0	 60	-60	 1.035	 5	 1	 119	 1;
	 261	 0	 0	 8.4	-8.4	 1.035	 0	 1	 0	 0;
	 263	 63.75	 0	 64	-64	 1.035	 2	 1	 127	 0.5;
	 269	 0	 0	 17	-17	 1.035	 1	 0	 33	 0.5;
	 313	 0	 0	 6	-6	 1.035	 4	 0	 11	 1.5;
	 323	 393	 0	 268	-268	 1	 42342	 1	 535	 251;
];

mpc_regionR2.branch = [
%	fbus        tbus        r           x           b           rateA       rateB       rateC       ratio       angle       status      angmin      angmax      
	 11	 14	 0.00023	 0.023	 0	 500	 500	 500	 1.07426	 0	 1	-30	 30;
	 12	 15	 0.00023	 0.023	 0	 500	 500	 500	 1.07426	 0	 1	-30	 30;
	 323	 14	 0.00029	 0.00317	 0.09184	 773	 773	 773	 0	 0	 1	-30	 30;
	 323	 15	 0.0003	 0.00326	 0.09536	 771	 771	 771	 0	 0	 1	-30	 30;
	 19	 11	 0.01039	 0.08983	 0.11422	 356	 356	 356	 0	 0	 1	-30	 30;
	 20	 12	 0.01039	 0.08983	 0.11422	 356	 356	 356	 0	 0	 1	-30	 30;
	 21	 11	 0.01455	 0.0813	 0.13279	 267	 267	 267	 0	 0	 1	-30	 30;
	 22	 12	 0.01455	 0.0813	 0.13279	 267	 267	 267	 0	 0	 1	-30	 30;
	 3	 22	 0.00519	 0.03965	 0.05836	 317	 317	 317	 0	 0	 1	-30	 30;
	 3	 8	 0.00083	 0.00645	 0.00951	 317	 317	 317	 0	 0	 1	-30	 30;
	 4	 11	 0.00597	 0.04473	 0.06735	 317	 317	 317	 0	 0	 1	-30	 30;
	 18	 19	 0.01736	 0.10969	 0.16268	 287	 287	 287	 0	 0	 1	-30	 30;
	 9	 20	 0.00938	 0.06093	 0.08934	 332	 332	 332	 0	 0	 1	-30	 30;
	 1	 5	 0.00514	 0.03826	 0.05933	 231	 231	 231	 0	 0	 1	-30	 30;
	 22	 2	 0.00221	 0.01618	 0.02541	 231	 231	 231	 0	 0	 1	-30	 30;
	 23	 21	 0.00525	 0.03837	 0.06052	 231	 231	 231	 0	 0	 1	-30	 30;
	 25	 19	 0.00236	 0.01746	 0.02676	 341	 341	 341	 0	 0	 1	-30	 30;
	 14	 6	 0.00274	 0.02778	 0.69846	 717	 717	 717	 0	 0	 1	-30	 30;
	 16	 7	 0.00171	 0.01741	 0.45456	 717	 717	 717	 0	 0	 1	-30	 30;
	 34	 2	 0.00145	 0.06818	 0	 160	 160	 160	 1.02665	 0	 1	-30	 30;
	 35	 1	 0.00165	 0.06818	 0	 160	 160	 160	 1.07108	 0	 1	-30	 30;
	 38	 3	 0.00145	 0.06818	 0	 160	 160	 160	 1.07492	 0	 1	-30	 30;
	 49	 4	 0.00151	 0.06688	 0	 160	 160	 160	 1.04116	 0	 1	-30	 30;
	 51	 6	 0.00153	 0.06206	 0	 250	 250	 250	 1.09711	 0	 1	-30	 30;
	 52	 7	 0.00152	 0.06206	 0	 250	 250	 250	 1.09923	 0	 1	-30	 30;
	 91	 8	 0.00145	 0.06818	 0	 160	 160	 160	 1.08199	 0	 1	-30	 30;
	 92	 8	 0.00145	 0.06818	 0	 160	 160	 160	 1.09028	 0	 1	-30	 30;
	 143	 9	 0.00165	 0.0593	 0	 160	 160	 160	 1.13469	 0	 1	-30	 30;
	 157	 11	 0.00165	 0.09277	 0	 160	 160	 160	 1.00145	 0	 1	-30	 30;
	 158	 12	 0.00165	 0.06694	 0	 160	 160	 160	 1.00143	 0	 1	-30	 30;
	 175	 17	 0.00101	 0.06188	 0	 330	 330	 330	 1.09976	 0	 1	-30	 30;
	 174	 16	 0.00138	 0.05931	 0	 250	 250	 250	 1.10126	 0	 1	-30	 30;
	 192	 19	 0.00165	 0.06653	 0	 160	 160	 160	 1.09977	 0	 1	-30	 30;
	 193	 20	 0.00165	 0.06775	 0	 160	 160	 160	 1.10386	 0	 1	-30	 30;
	 230	 21	 0.00165	 0.06818	 0	 160	 160	 160	 1.04021	 0	 1	-30	 30;
	 231	 22	 0.00165	 0.06818	 0	 160	 160	 160	 1.04934	 0	 1	-30	 30;
	 309	 23	 0.00165	 0.06632	 0	 160	 160	 160	 1.04795	 0	 1	-30	 30;
	 319	 24	 0.00165	 0.06632	 0	 160	 160	 160	 1.111	 0	 1	-30	 30;
	 318	 25	 0.00165	 0.06632	 0	 160	 160	 160	 1.10448	 0	 1	-30	 30;
	 269	 69	 0.05893	 0.12397	 0.01197	 78	 78	 78	 0	 0	 1	-30	 30;
	 229	 30	 0.02486	 0.04348	 0.00415	 62	 62	 62	 0	 0	 1	-30	 30;
	 224	 245	 0.02066	 0.06686	 0.00692	 82	 82	 82	 0	 0	 1	-30	 30;
	 130	 159	 0.05967	 0.10455	 0.00995	 59	 59	 59	 0	 0	 1	-30	 30;
	 42	 319	 0.02711	 0.04612	 0.00445	 55	 55	 55	 0	 0	 1	-30	 30;
	 219	 319	 0.03366	 0.11402	 0.01129	 62	 62	 62	 0	 0	 1	-30	 30;
	 128	 182	 0.02497	 0.08457	 0.00837	 105	 105	 105	 0	 0	 1	-30	 30;
	 233	 170	 0.03204	 0.10852	 0.01074	 105	 105	 105	 0	 0	 1	-30	 30;
	 234	 190	 0.01612	 0.05281	 0.00541	 62	 62	 62	 0	 0	 1	-30	 30;
	 75	 208	 0.0166	 0.05623	 0.00557	 10	 10	 10	 0	 0	 1	-30	 30;
	 176	 135	 0.10413	 0.16851	 0.01897	 78	 78	 78	 0	 0	 1	-30	 30;
	 149	 284	 0.0158	 0.02764	 0.00264	 76	 76	 76	 0	 0	 1	-30	 30;
	 284	 92	 0.1	 0.16529	 0.01822	 76	 76	 76	 0	 0	 1	-30	 30;
	 147	 284	 0.0157	 0.04628	 0.00501	 76	 76	 76	 0	 0	 1	-30	 30;
	 169	 45	 0.0338	 0.05537	 0.00595	 67	 67	 67	 0	 0	 1	-30	 30;
	 169	 78	 0.0157	 0.04628	 0.00501	 69	 69	 69	 0	 0	 1	-30	 30;
	 136	 91	 0.02893	 0.04711	 0.0053	 78	 78	 78	 0	 0	 1	-30	 30;
	 280	 274	 0.00055	 0.00182	 0.02683	 118	 118	 118	 0	 0	 1	-30	 30;
	 232	 46	 0.01198	 0.04056	 0.00401	 122	 122	 122	 0	 0	 1	-30	 30;
	 199	 267	 0.00266	 0.00902	 0.00089	 122	 122	 122	 0	 0	 1	-30	 30;
	 200	 268	 0.00266	 0.00902	 0.00089	 122	 122	 122	 0	 0	 1	-30	 30;
	 299	 92	 0.00354	 0.00618	 0.00059	 78	 78	 78	 0	 0	 1	-30	 30;
	 275	 299	 0.01327	 0.02321	 0.00221	 78	 78	 78	 0	 0	 1	-30	 30;
	 299	 266	 0.00241	 0.00421	 0.0004	 78	 78	 78	 0	 0	 1	-30	 30;
	 301	 91	 0.02584	 0.0452	 0.00431	 78	 78	 78	 0	 0	 1	-30	 30;
	 301	 45	 0.00416	 0.00727	 0.00069	 78	 78	 78	 0	 0	 1	-30	 30;
	 301	 267	 0.01653	 0.029	 0.00277	 78	 78	 78	 0	 0	 1	-30	 30;
	 303	 268	 0.01653	 0.02897	 0.00276	 78	 78	 78	 0	 0	 1	-30	 30;
	 274	 303	 0.02164	 0.03784	 0.00361	 78	 78	 78	 0	 0	 1	-30	 30;
	 303	 46	 0.00416	 0.00727	 0.00069	 78	 78	 78	 0	 0	 1	-30	 30;
	 298	 175	 0.00877	 0.02969	 0.00294	 122	 122	 122	 0	 0	 1	-30	 30;
	 232	 298	 0.00445	 0.01505	 0.00149	 122	 122	 122	 0	 0	 1	-30	 30;
	 273	 298	 0.00497	 0.01683	 0.00167	 122	 122	 122	 0	 0	 1	-30	 30;
	 197	 46	 0.0157	 0.04793	 0.00515	 116	 116	 116	 0	 0	 1	-30	 30;
	 197	 174	 0.00744	 0.02397	 0.00257	 119	 119	 119	 0	 0	 1	-30	 30;
	 281	 249	 0.0157	 0.02727	 0.00264	 89	 89	 89	 0	 0	 1	-30	 30;
	 302	 174	 0.0084	 0.02843	 0.00281	 122	 122	 122	 0	 0	 1	-30	 30;
	 304	 259	 0.00106	 0.0036	 0.00036	 122	 122	 122	 0	 0	 1	-30	 30;
	 281	 304	 0.00393	 0.01332	 0.00132	 122	 122	 122	 0	 0	 1	-30	 30;
	 302	 304	 0.00122	 0.00414	 0.00041	 122	 122	 122	 0	 0	 1	-30	 30;
	 272	 302	 0.00498	 0.01687	 0.00167	 122	 122	 122	 0	 0	 1	-30	 30;
	 293	 175	 0.00961	 0.03256	 0.00322	 122	 122	 122	 0	 0	 1	-30	 30;
	 293	 250	 0.00941	 0.03188	 0.00316	 122	 122	 122	 0	 0	 1	-30	 30;
	 260	 293	 0.00106	 0.0036	 0.00036	 122	 122	 122	 0	 0	 1	-30	 30;
	 167	 174	 0.02314	 0.05868	 0.00574	 102	 102	 102	 0	 0	 1	-30	 30;
	 235	 175	 0.01372	 0.04446	 0.00439	 119	 119	 119	 0	 0	 1	-30	 30;
	 170	 175	 0.02231	 0.07182	 0.00702	 119	 119	 119	 0	 0	 1	-30	 30;
	 300	 175	 0.02489	 0.08432	 0.00835	 120	 120	 120	 0	 0	 1	-30	 30;
	 257	 300	 0.01362	 0.04612	 0.00457	 120	 120	 120	 0	 0	 1	-30	 30;
	 206	 174	 0.0295	 0.0999	 0.00989	 122	 122	 122	 0	 0	 1	-30	 30;
	 78	 161	 0.00752	 0.01256	 0.0013	 57	 57	 57	 0	 0	 1	-30	 30;
	 235	 159	 0.06215	 0.10504	 0.01058	 78	 78	 78	 0	 0	 1	-30	 30;
	 312	 167	 0.03967	 0.06942	 0.00666	 78	 78	 78	 0	 0	 1	-30	 30;
	 279	 249	 0.00496	 0.0157	 0.0008	 78	 78	 78	 0	 0	 1	-30	 30;
	 290	 46	 0.01438	 0.02405	 0.00249	 78	 78	 78	 0	 0	 1	-30	 30;
	 170	 290	 0.03876	 0.06463	 0.00668	 78	 78	 78	 0	 0	 1	-30	 30;
	 290	 160	 0.01165	 0.02124	 0.00221	 78	 78	 78	 0	 0	 1	-30	 30;
	 283	 92	 0.01165	 0.02038	 0.00195	 78	 78	 78	 0	 0	 1	-30	 30;
	 283	 250	 0.009	 0.01574	 0.0015	 78	 78	 78	 0	 0	 1	-30	 30;
	 73	 283	 0.00149	 0.0026	 0.00025	 78	 78	 78	 0	 0	 1	-30	 30;
	 294	 91	 0.00326	 0.0057	 0.00054	 78	 78	 78	 0	 0	 1	-30	 30;
	 294	 184	 0.00334	 0.00583	 0.00056	 78	 78	 78	 0	 0	 1	-30	 30;
	 265	 294	 0.00856	 0.01497	 0.00143	 78	 78	 78	 0	 0	 1	-30	 30;
	 278	 92	 0.01157	 0.01893	 0.00201	 78	 78	 78	 0	 0	 1	-30	 30;
	 285	 91	 0.01121	 0.01967	 0.00187	 78	 78	 78	 0	 0	 1	-30	 30;
	 279	 285	 0.00021	 0.00036	 3e-05	 78	 78	 78	 0	 0	 1	-30	 30;
	 72	 285	 0.00161	 0.00281	 0.00027	 78	 78	 78	 0	 0	 1	-30	 30;
	 264	 249	 0.01523	 0.0484	 0.00476	 118	 118	 118	 0	 0	 1	-30	 30;
	 262	 250	 0.01157	 0.03636	 0.00399	 102	 102	 102	 0	 0	 1	-30	 30;
	 261	 263	 0.00707	 0.02395	 0.00237	 122	 122	 122	 0	 0	 1	-30	 30;
	 262	 223	 0.02562	 0.08264	 0.00854	 119	 119	 119	 0	 0	 1	-30	 30;
	 223	 196	 0.02149	 0.06942	 0.00711	 119	 119	 119	 0	 0	 1	-30	 30;
	 183	 249	 0.00992	 0.01736	 0.00172	 78	 78	 78	 0	 0	 1	-30	 30;
	 278	 261	 0.01983	 0.0338	 0.00329	 78	 78	 78	 0	 0	 1	-30	 30;
	 92	 45	 0.02561	 0.04415	 0.00429	 78	 78	 78	 0	 0	 1	-30	 30;
	 305	 91	 0.01774	 0.0304	 0.00298	 78	 78	 78	 0	 0	 1	-30	 30;
	 28	 92	 0.005	 0.00879	 0.00084	 89	 89	 89	 0	 0	 1	-30	 30;
	 320	 217	 0.0281	 0.04876	 0.00477	 78	 78	 78	 0	 0	 1	-30	 30;
	 28	 320	 0.023	 0.04027	 0.00384	 78	 78	 78	 0	 0	 1	-30	 30;
	 245	 170	 0.02546	 0.08496	 0.00635	 121	 121	 121	 0	 0	 1	-30	 30;
	 62	 143	 0.03771	 0.12774	 0.01265	 122	 122	 122	 0	 0	 1	-30	 30;
	 182	 62	 0.02896	 0.10088	 0.00999	 123	 123	 123	 0	 0	 1	-30	 30;
	 289	 143	 0.03891	 0.06806	 0.00649	 78	 78	 78	 0	 0	 1	-30	 30;
	 289	 270	 0.00102	 0.00347	 0.00034	 78	 78	 78	 0	 0	 1	-30	 30;
	 289	 57	 0.03237	 0.05888	 0.00583	 78	 78	 78	 0	 0	 1	-30	 30;
	 220	 143	 0.03196	 0.05589	 0.00533	 78	 78	 78	 0	 0	 1	-30	 30;
	 220	 86	 0.01848	 0.03232	 0.00308	 69	 69	 69	 0	 0	 1	-30	 30;
	 86	 74	 0.02901	 0.05165	 0.00489	 78	 78	 78	 0	 0	 1	-30	 30;
	 162	 74	 0.01661	 0.0295	 0.00288	 78	 78	 78	 0	 0	 1	-30	 30;
	 152	 36	 0.02213	 0.07514	 0.00742	 91	 91	 91	 0	 0	 1	-30	 30;
	 202	 36	 0.04678	 0.05793	 0.00462	 76	 76	 76	 0	 0	 1	-30	 30;
	 222	 221	 0.05388	 0.0943	 0.00898	 69	 69	 69	 0	 0	 1	-30	 30;
	 145	 143	 0.00033	 0.00041	 0	 76	 76	 76	 0	 0	 1	-30	 30;
	 65	 143	 0.06808	 0.1244	 0.01294	 78	 78	 78	 0	 0	 1	-30	 30;
	 221	 65	 0.0043	 0.01028	 0.00143	 78	 78	 78	 0	 0	 1	-30	 30;
	 213	 86	 0.04645	 0.08174	 0.00801	 69	 69	 69	 0	 0	 1	-30	 30;
	 152	 143	 0.00389	 0.01322	 0.0013	 69	 69	 69	 0	 0	 1	-30	 30;
	 233	 89	 0.02826	 0.0957	 0.00947	 91	 91	 91	 0	 0	 1	-30	 30;
	 173	 58	 0.01729	 0.05855	 0.0058	 105	 105	 105	 0	 0	 1	-30	 30;
	 58	 172	 0.02737	 0.09213	 0.00912	 105	 105	 105	 0	 0	 1	-30	 30;
	 173	 89	 0.01792	 0.06144	 0.00601	 105	 105	 105	 0	 0	 1	-30	 30;
	 130	 172	 0.03793	 0.09752	 0.00999	 87	 87	 87	 0	 0	 1	-30	 30;
	 99	 81	 0.01529	 0.04967	 0.00518	 105	 105	 105	 0	 0	 1	-30	 30;
	 171	 172	 0.00388	 0.00669	 0.00063	 59	 59	 59	 0	 0	 1	-30	 30;
	 168	 172	 0.01793	 0.05818	 0.00603	 76	 76	 76	 0	 0	 1	-30	 30;
	 130	 129	 0.0024	 0.00413	 0.00039	 88	 88	 88	 0	 0	 1	-30	 30;
	 224	 168	 0.01438	 0.04653	 0.00481	 82	 82	 82	 0	 0	 1	-30	 30;
	 129	 100	 0.01752	 0.05438	 0.00564	 105	 105	 105	 0	 0	 1	-30	 30;
	 130	 128	 0.00653	 0.02207	 0.00216	 91	 91	 91	 0	 0	 1	-30	 30;
	 141	 309	 0.04876	 0.06942	 0.01254	 81	 81	 81	 0	 0	 1	-30	 30;
	 201	 310	 0.01979	 0.03629	 0.00348	 78	 78	 78	 0	 0	 1	-30	 30;
	 282	 310	 0.02364	 0.05992	 0.00618	 102	 102	 102	 0	 0	 1	-30	 30;
	 297	 56	 0.00044	 0.00112	 0.00011	 102	 102	 102	 0	 0	 1	-30	 30;
	 282	 297	 0.00246	 0.00659	 0.00067	 102	 102	 102	 0	 0	 1	-30	 30;
	 32	 282	 0.00405	 0.01306	 0.00136	 119	 119	 119	 0	 0	 1	-30	 30;
	 307	 310	 0.02231	 0.07557	 0.00748	 122	 122	 122	 0	 0	 1	-30	 30;
	 217	 309	 0.02835	 0.09504	 0.00937	 121	 121	 121	 0	 0	 1	-30	 30;
	 165	 309	 0.03025	 0.10165	 0.01002	 120	 120	 120	 0	 0	 1	-30	 30;
	 314	 231	 0.0157	 0.02727	 0.00286	 69	 69	 69	 0	 0	 1	-30	 30;
	 248	 185	 0.01201	 0.02671	 0.00259	 100	 100	 100	 0	 0	 1	-30	 30;
	 247	 230	 0.01127	 0.02548	 0.00247	 78	 78	 78	 0	 0	 1	-30	 30;
	 218	 230	 0.0081	 0.02742	 0.00272	 114	 114	 114	 0	 0	 1	-30	 30;
	 227	 230	 0.02975	 0.04207	 0.00404	 69	 69	 69	 0	 0	 1	-30	 30;
	 198	 231	 0.04959	 0.08678	 0.009	 69	 69	 69	 0	 0	 1	-30	 30;
	 198	 177	 0.04207	 0.07025	 0.00733	 69	 69	 69	 0	 0	 1	-30	 30;
	 32	 231	 0.03898	 0.10313	 0.01043	 102	 102	 102	 0	 0	 1	-30	 30;
	 211	 230	 0.01467	 0.0404	 0.00628	 78	 78	 78	 0	 0	 1	-30	 30;
	 227	 82	 0.05124	 0.08182	 0.00949	 78	 78	 78	 0	 0	 1	-30	 30;
	 26	 34	 0.00661	 0.01983	 0.0023	 115	 115	 115	 0	 0	 1	-30	 30;
	 180	 230	 0.01405	 0.02727	 0.00278	 78	 78	 78	 0	 0	 1	-30	 30;
	 180	 35	 0.02479	 0.04298	 0.00423	 78	 78	 78	 0	 0	 1	-30	 30;
	 154	 34	 0.03223	 0.05537	 0.00307	 78	 78	 78	 0	 0	 1	-30	 30;
	 26	 231	 0.01762	 0.04135	 0.00402	 78	 78	 78	 0	 0	 1	-30	 30;
	 185	 35	 0.01135	 0.03509	 0.00346	 117	 117	 117	 0	 0	 1	-30	 30;
	 252	 35	 0.00992	 0.02066	 0.00218	 91	 91	 91	 0	 0	 1	-30	 30;
	 85	 35	 0.01753	 0.05936	 0.00588	 122	 122	 122	 0	 0	 1	-30	 30;
	 207	 252	 0.00992	 0.02314	 0.00261	 91	 91	 91	 0	 0	 1	-30	 30;
	 207	 166	 0.0338	 0.08099	 0.00927	 91	 91	 91	 0	 0	 1	-30	 30;
	 215	 60	 0.0281	 0.08926	 0.00924	 114	 114	 114	 0	 0	 1	-30	 30;
	 155	 60	 0.01405	 0.04463	 0.0046	 118	 118	 118	 0	 0	 1	-30	 30;
	 215	 166	 0.01818	 0.04132	 0.00465	 101	 101	 101	 0	 0	 1	-30	 30;
	 155	 34	 0.01157	 0.0281	 0.00286	 102	 102	 102	 0	 0	 1	-30	 30;
	 215	 87	 0.02479	 0.03471	 0.00419	 78	 78	 78	 0	 0	 1	-30	 30;
	 44	 88	 0.03793	 0.06612	 0.00641	 78	 78	 78	 0	 0	 1	-30	 30;
	 54	 88	 0.03853	 0.06806	 0.0065	 78	 78	 78	 0	 0	 1	-30	 30;
	 132	 54	 0.02515	 0.0455	 0.00437	 91	 91	 91	 0	 0	 1	-30	 30;
	 141	 43	 0.01405	 0.04463	 0.00484	 118	 118	 118	 0	 0	 1	-30	 30;
	 246	 297	 0.00775	 0.02625	 0.0026	 102	 102	 102	 0	 0	 1	-30	 30;
	 76	 218	 0.00826	 0.01653	 0.00194	 95	 95	 95	 0	 0	 1	-30	 30;
	 55	 211	 0.03764	 0.09704	 0.00984	 78	 78	 78	 0	 0	 1	-30	 30;
	 75	 315	 0.01676	 0.05678	 0.00562	 122	 122	 122	 0	 0	 1	-30	 30;
	 138	 310	 0.01335	 0.0452	 0.00447	 120	 120	 120	 0	 0	 1	-30	 30;
	 311	 157	 0.01317	 0.0446	 0.00442	 122	 122	 122	 0	 0	 1	-30	 30;
	 276	 30	 0.02744	 0.10017	 0.00953	 114	 114	 114	 0	 0	 1	-30	 30;
	 277	 53	 0.0062	 0.02008	 0.00293	 114	 114	 114	 0	 0	 1	-30	 30;
	 31	 157	 0.05489	 0.14743	 0.01489	 102	 102	 102	 0	 0	 1	-30	 30;
	 29	 158	 0.04902	 0.12753	 0.01292	 102	 102	 102	 0	 0	 1	-30	 30;
	 243	 157	 0.00514	 0.03512	 0.0079	 170	 170	 170	 0	 0	 1	-30	 30;
	 244	 158	 0.00514	 0.03512	 0.0079	 170	 170	 170	 0	 0	 1	-30	 30;
	 139	 157	 0.03223	 0.07769	 0.0044	 104	 104	 104	 0	 0	 1	-30	 30;
	 40	 158	 0.02727	 0.0686	 0.00666	 102	 102	 102	 0	 0	 1	-30	 30;
...
];

mpc_regionR2.gencost = [
%	2           startup     shutdown    n           c(n-1)...c0 
	 2	 0	 0	 3	 0	 139.01	 0;
	 2	 0	 0	 3	 0	 139.01	 0;
	 2	 0	 0	 3	 0	 139.01	 0;
	 2	 0	 0	 3	 0	 139.01	 0;
	 2	 0	 0	 3	 0	 139.01	 0;
	 2	 0	 0	 3	 0	 139.01	 0;
	 2	 0	 0	 3	 0	 139.01	 0;
	 2	 0	 0	 3	 0	 139.01	 0;
	 2	 0	 0	 3	 0	 0	 0;
	 2	 0	 0	 3	 0	 0	 0;
	 2	 0	 0	 3	 0	 0	 0;
	 2	 0	 0	 3	 0	 0	 0;
	 2	 0	 0	 3	 0	 0	 0;
	 2	 0	 0	 3	 0	 0	 0;
	 2	 0	 0	 3	 0	 0	 0;
	 2	 0	 0	 3	 0	 0	 0;
	 2	 0	 0	 3	 0	 0	 0;
	 2	 0	 0	 3	 0	 0	 0;
	 2	 0	 0	 3	 0	 0	 0;
	 2	 0	 0	 3	 0	 0	 0;
	 2	 0	 0	 3	 0	 0	 0;
	 2	 0	 0	 3	 0	 0	 0;
	 2	 0	 0	 3	 0	 0	 0;
	 2	 0	 0	 3	 0	 0	 0;
	 2	 0	 0	 3	 0	 0	 0;
	 2	 0	 0	 3	 0	 0	 0;
	 2	 0	 0	 3	 0	 0	 0;
	 2	 0	 0	 3	 0	 0	 0;
	 2	 0	 0	 3	 0	 0	 0;
	 2	 0	 0	 3	 0	 0	 0;
	 2	 0	 0	 3	 0	 0	 0;
	 2	 0	 0	 3	 0	 0	 0;
	 2	 0	 0	 3	 0	 0	 0;
	 2	 0	 0	 3	 0	 0	 0;
	 2	 0	 0	 3	 0	 0	 0;
	 2	 0	 0	 3	 0	 0	 0;
	 2	 0	 0	 3	 0	 0	 0;
	 2	 0	 0	 3	 0	 0	 0;
	 2	 0	 0	 3	 0	 0	 0;
	 2	 0	 0	 3	 0	 0	 0;
	 2	 0	 0	 3	 0	 0	 0;
	 2	 0	 0	 3	 0	 0	 0;
	 2	 0	 0	 3	 0	 0	 0;
	 2	 0	 0	 3	 0	 139.01	 0;
	 2	 0	 0	 3	 0	 0	 0;
	 2	 0	 0	 3	 0	 0	 0;
	 2	 0	 0	 3	 0	 0	 0;
	 2	 0	 0	 3	 0	 0	 0;
	 2	 0	 0	 3	 0	 0	 0;
	 2	 0	 0	 3	 0	 0	 0;
	 2	 0	 0	 3	 0	 0	 0;
	 2	 0	 0	 3	 0	 0	 0;
	 2	 0	 0	 3	 0	 0	 0;
	 2	 0	 0	 3	 0	 0	 0;
	 2	 0	 0	 3	 0	 0	 0;
];


% -------------------- mpc_regionR3 --------------------

mpc_regionR3.version = '2';
mpc_regionR3.baseMVA = 100.0000;
mpc_regionR3.bus = [
%	bus_i       type        Pd          Qd          Gs          Bs          area        Vm          Va          baseKV      zone        Vmax        Vmin        
	 1	 1	 0	 0	 0	 0	 1	 1.03	 0	 220	 4	 1.11	 0.95;
	 2	 1	 0	 0	 0	 0	 1	 1.03	 0	 220	 4	 1.11	 0.95;
	 3	 1	 0	 0	 0	 0	 1	 1.03	 0	 220	 4	 1.11	 0.95;
	 4	 1	 0	 0	 0	 0	 1	 1.03	 0	 220	 4	 1.11	 0.95;
	 5	 2	 14.17	 30	 0	 0	 1	 1.03	 0	 220	 4	 1.11	 0.95;
	 6	 2	 23.51	 36.57	 0	 0	 1	 1.03	 0	 220	 4	 1.11	 0.95;
	 7	 2	 14.17	 30	 0	 0	 1	 1	 0	 400	 4	 1.05	 0.95;
	 8	 2	 14.17	 30	 0	 0	 1	 1	 0	 400	 4	 1.05	 0.95;
	 9	 1	 0	 0	 0	 0	 1	 1.03	 0	 220	 4	 1.11	 0.95;
	 10	 1	 0	 0	 0	 0	 1	 1.03	 0	 220	 4	 1.11	 0.95;
	 11	 1	 0	 0	 0	 0	 1	 1.03	 0	 220	 4	 1.11	 0.95;
	 12	 1	 0	 0	 0	 0	 1	 1.03	 0	 220	 4	 1.11	 0.95;
	 13	 1	 0	 0	 0	 0	 1	 1.03	 0	 220	 4	 1.11	 0.95;
	 14	 1	 0	 0	 0	 0	 1	 1.03	 0	 220	 4	 1.11	 0.95;
	 15	 1	 0	 0	 0	 0	 1	 1	 0	 400	 4	 1.05	 0.95;
	 16	 2	 0	-7.17	 0	 0	 1	 1.03	 0	 220	 4	 1.11	 0.95;
	 17	 1	 10.07	 1.26	 0	 0	 1	 1.035	 0	 110	 4	 1.12	 0.95;
	 18	 1	 6.02	 2.11	 0	 0	 1	 1.035	 0	 110	 4	 1.12	 0.95;
	 19	 1	 13.52	 2.64	 0	 0	 1	 1.035	 0	 110	 4	 1.12	 0.95;
	 20	 1	 30.59	 6.42	 0	 0	 1	 1.035	 0	 110	 4	 1.12	 0.95;
	 21	 1	 28.79	 4.55	 0	 0	 1	 1.035	 0	 110	 4	 1.12	 0.95;
	 22	 1	 4.05	 1.05	 0	 0	 1	 1.035	 0	 110	 4	 1.12	 0.95;
	 23	 1	 1.72	 0.52	 0	 0	 1	 1.035	 0	 110	 4	 1.12	 0.95;
	 24	 1	 0	 0	 0	 0	 1	 1.035	 0	 110	 4	 1.12	 0.95;
	 25	 1	 12.8	 2.51	 0	 0	 1	 1.035	 0	 110	 4	 1.12	 0.95;
	 26	 1	 7.13	 2.42	 0	 0	 1	 1.035	 0	 110	 4	 1.12	 0.95;
	 27	 1	 3.57	 1.27	 0	 0	 1	 1.035	 0	 110	 4	 1.12	 0.95;
	 28	 1	 7.83	 0.64	 0	 0	 1	 1.035	 0	 110	 4	 1.12	 0.95;
	 29	 1	 2.95	 1.58	 0	 0	 1	 1.035	 0	 110	 4	 1.12	 0.95;
	 30	 1	 21.29	 3.77	 0	 0	 1	 1.035	 0	 110	 4	 1.12	 0.95;
	 31	 1	 14.75	 4.85	 0	 0	 1	 1.035	 0	 110	 4	 1.12	 0.95;
	 32	 1	 5.53	 0.1	 0	 0	 1	 1.035	 0	 110	 4	 1.12	 0.95;
	 33	 1	 4.29	 0.53	 0	 0	 1	 1.035	 0	 110	 4	 1.12	 0.95;
	 34	 1	 9.91	 0.53	 0	 0	 1	 1.035	 0	 110	 4	 1.12	 0.95;
	 35	 1	 4.18	 1.16	 0	 0	 1	 1.035	 0	 110	 4	 1.12	 0.95;
	 36	 2	 22.69	 32.9	 0	 0	 1	 1.035	 0	 110	 4	 1.12	 0.95;
	 37	 1	 0	 0	 0	 0	 1	 1.035	 0	 110	 4	 1.12	 0.95;
	 38	 1	 9.3	 0.53	 0	 0	 1	 1.035	 0	 110	 4	 1.12	 0.95;
	 39	 1	 0	 0	 0	 0	 1	 1.035	 0	 110	 4	 1.12	 0.95;
	 40	 1	 14.15	 0.21	 0	 0	 1	 1.035	 0	 110	 4	 1.12	 0.95;
	 41	 2	 0.01	 0.01	 0	 0	 1	 1.035	 0	 110	 4	 1.12	 0.95;
	 42	 1	 0	 0	 0	 0	 1	 1.035	 0	 110	 4	 1.12	 0.95;
	 43	 1	 2.7	 0.84	 0	 0	 1	 1.035	 0	 110	 4	 1.12	 0.95;
	 44	 1	 7.75	 2.09	 0	 0	 1	 1.035	 0	 110	 4	 1.12	 0.95;
	 45	 2	 5.54	 1.91	 0	 0	 1	 1.035	 0	 110	 4	 1.12	 0.95;
	 46	 2	 0.1	-0.79	 0	 0	 1	 1.035	 0	 110	 4	 1.12	 0.95;
	 47	 1	 0.12	 0.05	 0	 0	 1	 1.035	 0	 110	 4	 1.12	 0.95;
	 48	 2	 3.55	 5.01	 0	 0	 1	 1.035	 0	 110	 4	 1.12	 0.95;
	 49	 2	 0.01	 0.01	 0	 0	 1	 1.035	 0	 110	 4	 1.12	 0.95;
	 50	 1	 15.24	 4.74	 0	 0	 1	 1.035	 0	 110	 4	 1.12	 0.95;
	 51	 1	 5.38	 0.64	 0	 0	 1	 1.035	 0	 110	 4	 1.12	 0.95;
	 52	 1	 5.38	 0.64	 0	 0	 1	 1.035	 0	 110	 4	 1.12	 0.95;
	 53	 1	 24.11	 4.6	 0	 0	 1	 1.035	 0	 110	 4	 1.12	 0.95;
	 54	 1	 11.06	 3.79	 0	 0	 1	 1.035	 0	 110	 4	 1.12	 0.95;
	 55	 1	 11.38	 2.35	 0	 0	 1	 1.035	 0	 110	 4	 1.12	 0.95;
	 56	 1	 0	 0	 0	 0	 1	 1.035	 0	 110	 4	 1.12	 0.95;
	 57	 1	 18.36	 3.21	 0	 0	 1	 1.035	 0	 110	 4	 1.12	 0.95;
	 58	 1	 6.26	 0.21	 0	 0	 1	 1.035	 0	 110	 4	 1.12	 0.95;
	 59	 1	 16.72	 5.69	 0	 0	 1	 1.035	 0	 110	 4	 1.12	 0.95;
	 60	 1	 4.4	 0.86	 0	 0	 1	 1.035	 0	 110	 4	 1.12	 0.95;
	 61	 1	 6.25	 0.53	 0	 0	 1	 1.035	 0	 110	 4	 1.12	 0.95;
	 62	 1	 13.46	 3.74	 0	 0	 1	 1.035	 0	 110	 4	 1.12	 0.95;
	 63	 1	 14.76	 2.2	 0	 0	 1	 1.035	 0	 110	 4	 1.12	 0.95;
	 64	 1	 18.57	 5.75	 0	 0	 1	 1.035	 0	 110	 4	 1.12	 0.95;
	 65	 1	 20.3	 7.74	 0	 0	 1	 1.035	 0	 110	 4	 1.12	 0.95;
	 66	 1	 12.29	 3.8	 0	 0	 1	 1.035	 0	 110	 4	 1.12	 0.95;
	 67	 2	 15.96	 6.68	 0	 0	 1	 1.035	 0	 110	 4	 1.12	 0.95;
	 68	 1	 0	 0	 0	 0	 1	 1.035	 0	 110	 4	 1.12	 0.95;
	 69	 2	 29.39	 5.37	 0	 0	 1	 1.035	 0	 110	 4	 1.12	 0.95;
	 70	 1	 14.15	 4.39	 0	 0	 1	 1.035	 0	 110	 4	 1.12	 0.95;
	 71	 1	 0	 0	 0	 0	 1	 1.035	 0	 110	 4	 1.12	 0.95;
	 72	 1	 6.48	 0.64	 0	 0	 1	 1.035	 0	 110	 4	 1.12	 0.95;
	 73	 1	 8.11	 2	 0	 0	 1	 1.035	 0	 110	 4	 1.12	 0.95;
	 74	 1	 6.64	 2.32	 0	 0	 1	 1.035	 0	 110	 4	 1.12	 0.95;
	 75	 1	 0	 0	 0	 0	 1	 1.035	 0	 110	 4	 1.12	 0.95;
	 76	 1	 0	 0	 0	 0	 1	 1.035	 0	 110	 4	 1.12	 0.95;
	 77	 1	 1.96	 0.64	 0	 0	 1	 1.035	 0	 110	 4	 1.12	 0.95;
	 78	 1	 1.96	 0.64	 0	 0	 1	 1.035	 0	 110	 4	 1.12	 0.95;
	 79	 1	 11.67	 1.26	 0	 0	 1	 1.035	 0	 110	 4	 1.12	 0.95;
	 80	 1	 4.91	 1.69	 0	 0	 1	 1.035	 0	 110	 4	 1.12	 0.95;
	 81	 1	 5.04	 1.9	 0	 0	 1	 1.035	 0	 110	 4	 1.12	 0.95;
	 82	 1	 1.72	 0.53	 0	 0	 1	 1.035	 0	 110	 4	 1.12	 0.95;
	 83	 1	 5.27	 0.53	 0	 0	 1	 1.035	 0	 110	 4	 1.12	 0.95;
	 84	 1	 11.02	 2.14	 0	 0	 1	 1.035	 0	 110	 4	 1.12	 0.95;
	 85	 2	 2.11	 0.76	 0	 0	 1	 1.035	 0	 110	 4	 1.12	 0.95;
	 86	 1	 1.97	 0.74	 0	 0	 1	 1.035	 0	 110	 4	 1.12	 0.95;
	 87	 1	 3.67	 0.86	 0	 0	 1	 1.035	 0	 110	 4	 1.12	 0.95;
	 88	 1	 5.63	 0.54	 0	 0	 1	 1.035	 0	 110	 4	 1.12	 0.95;
	 89	 1	 8.36	 1.79	 0	 0	 1	 1.035	 0	 110	 4	 1.12	 0.95;
	 90	 1	 4.79	 1.05	 0	 0	 1	 1.035	 0	 110	 4	 1.12	 0.95;
	 91	 1	 13.52	 4.64	 0	 0	 1	 1.035	 0	 110	 4	 1.12	 0.95;
	 92	 1	 9.95	 3.37	 0	 0	 1	 1.035	 0	 110	 4	 1.12	 0.95;
	 93	 1	 22.64	 3.14	 0	 0	 1	 1.035	 0	 110	 4	 1.12	 0.95;
	 94	 1	 6.77	-1.7	 0	 0	 1	 1.035	 0	 110	 4	 1.12	 0.95;
	 95	 2	 12.56	 1.37	 0	 0	 1	 1.035	 0	 110	 4	 1.12	 0.95;
	 96	 2	 15.64	-0.88	 0	 0	 1	 1.035	 0	 110	 4	 1.12	 0.95;
	 97	 2	 25.82	 12.66	 0	 0	 1	 1.035	 0	 110	 4	 1.12	 0.95;
	 98	 1	 29.5	 23.19	 0	 0	 1	 1.035	 0	 110	 4	 1.12	 0.95;
	 99	 1	 0	 0	 0	 0	 1	 1.035	 0	 110	 4	 1.12	 0.95;
	 100	 1	 0	 0	 0	 0	 1	 1.035	 0	 110	 4	 1.12	 0.95;
	 101	 1	 5.72	-0.5	 0	 0	 1	 1.035	 0	 110	 4	 1.12	 0.95;
	 102	 1	 17.2	 4.22	 0	 0	 1	 1.035	 0	 110	 4	 1.12	 0.95;
	 103	 1	 19.05	 4.74	 0	 0	 1	 1.035	 0	 110	 4	 1.12	 0.95;
	 104	 1	 17.23	 7.32	 0	 0	 1	 1.035	 0	 110	 4	 1.12	 0.95;
	 105	 1	 0	 0	 0	 0	 1	 1.035	 0	 110	 4	 1.12	 0.95;
	 106	 2	 6.31	 1.77	 0	 0	 1	 1.035	 0	 110	 4	 1.12	 0.95;
	 107	 2	 6.7	 5.84	 0	 0	 1	 1.035	 0	 110	 4	 1.12	 0.95;
	 108	 1	 13.53	 3.77	 0	 0	 1	 1.035	 0	 110	 4	 1.12	 0.95;
	 109	 1	 9.09	 3.16	 0	 0	 1	 1.035	 0	 110	 4	 1.12	 0.95;
	 110	 2	 0	 0	 0	 0	 1	 1.035	 0	 110	 4	 1.12	 0.95;
	 111	 2	 8.74	 2.54	 0	 0	 1	 1.035	 0	 110	 4	 1.12	 0.95;
	 112	 1	 3.42	 0.53	 0	 0	 1	 1.035	 0	 110	 4	 1.12	 0.95;
	 113	 1	 8.32	 0.53	 0	 0	 1	 1.035	 0	 110	 4	 1.12	 0.95;
	 114	 1	 10.57	 0.63	 0	 0	 1	 1.035	 0	 110	 4	 1.12	 0.95;
	 115	 1	 9.58	 1.58	 0	 0	 1	 1.035	 0	 110	 4	 1.12	 0.95;
	 116	 1	 16.78	-0.57	 0	 0	 1	 1.035	 0	 110	 4	 1.12	 0.95;
	 117	 1	 1.42	 0.47	 0	 0	 1	 1.035	 0	 110	 4	 1.12	 0.95;
	 118	 1	 1.42	 0.47	 0	 0	 1	 1.035	 0	 110	 4	 1.12	 0.95;
	 119	 2	 5.4	 0.55	 0	 0	 1	 1.035	 0	 110	 4	 1.12	 0.95;
	 120	 2	 23.63	 2.97	 0	 0	 1	 1.035	 0	 110	 4	 1.12	 0.95;
	 121	 1	 11.56	 0.54	 0	 0	 1	 1.035	 0	 110	 4	 1.12	 0.95;
	 122	 1	 6.75	 2.32	 0	 0	 1	 1.035	 0	 110	 4	 1.12	 0.95;
	 123	 1	 6.88	 2.32	 0	 0	 1	 1.035	 0	 110	 4	 1.12	 0.95;
	 124	 1	 9.42	 0.75	 0	 0	 1	 1.035	 0	 110	 4	 1.12	 0.95;
	 125	 1	 7.46	 1.71	 0	 0	 1	 1.035	 0	 110	 4	 1.12	 0.95;
	 126	 1	 9.07	 2.45	 0	 0	 1	 1.035	 0	 110	 4	 1.12	 0.95;
	 127	 1	 7.38	 1.74	 0	 0	 1	 1.035	 0	 110	 4	 1.12	 0.95;
	 128	 1	 7.38	 1.74	 0	 0	 1	 1.035	 0	 110	 4	 1.12	 0.95;
	 129	 1	 0.74	 0.21	 0	 0	 1	 1.035	 0	 110	 4	 1.12	 0.95;
	 130	 2	 15.5	 5.28	 0	 0	 1	 1.035	 0	 110	 4	 1.12	 0.95;
	 131	 2	 11.06	 3.61	 0	 0	 1	 1.035	 0	 110	 4	 1.12	 0.95;
	 132	 1	 5.53	 1.9	 0	 0	 1	 1.035	 0	 110	 4	 1.12	 0.95;
	 133	 2	 7.63	 2.54	 0	 0	 1	 1.035	 0	 110	 4	 1.12	 0.95;
	 134	 1	 22.72	-1.7	 0	 0	 1	 1.035	 0	 110	 4	 1.12	 0.95;
	 135	 1	 25.69	 6.1	 0	 0	 1	 1.035	 0	 110	 4	 1.12	 0.95;
	 136	 1	 2.46	 0.84	 0	 0	 1	 1.035	 0	 110	 4	 1.12	 0.95;
	 137	 1	 3.2	 1.05	 0	 0	 1	 1.035	 0	 110	 4	 1.12	 0.95;
	 138	 1	 18.03	-1.3	 0	 0	 1	 1.035	 0	 110	 4	 1.12	 0.95;
	 139	 1	 4.79	 0.53	 0	 0	 1	 1.035	 0	 110	 4	 1.12	 0.95;
	 140	 1	 7.34	 1.07	 0	 0	 1	 1.035	 0	 110	 4	 1.12	 0.95;
	 141	 1	 0	 0	 0	 0	 1	 1.035	 0	 110	 4	 1.12	 0.95;
	 142	 1	 0	 0	 0	 0	 1	 1.035	 0	 110	 4	 1.12	 0.95;
	 143	 1	 0	 0	 0	 0	 1	 1.035	 0	 110	 4	 1.12	 0.95;
	 144	 1	 0	 0	 0	 0	 1	 1.035	 0	 110	 4	 1.12	 0.95;
	 145	 1	 0	 0	 0	 0	 1	 1.035	 0	 110	 4	 1.12	 0.95;
	 146	 1	 0	 0	 0	 0	 1	 1.035	 0	 110	 4	 1.12	 0.95;
	 147	 1	 3.07	 1.05	 0	 0	 1	 1.035	 0	 110	 4	 1.12	 0.95;
	 148	 1	 9.95	 3.06	 0	 0	 1	 1.035	 0	 110	 4	 1.12	 0.95;
	 149	 1	 67.55	 18.91	 0	 0	 1	 1.035	 0	 110	 4	 1.12	 0.95;
	 150	 1	 13.82	 3.47	 0	 0	 1	 1.035	 0	 110	 4	 1.12	 0.95;
	 151	 1	 13.82	 3.47	 0	 0	 1	 1.035	 0	 110	 4	 1.12	 0.95;
	 152	 1	 4.43	 0.84	 0	 0	 1	 1.035	 0	 110	 4	 1.12	 0.95;
	 153	 1	 33.31	 10.33	 0	 0	 1	 1.035	 0	 110	 4	 1.12	 0.95;
	 154	 1	 7.28	 0	 0	 0	 1	 1.035	 0	 110	 4	 1.12	 0.95;
	 155	 1	 17.19	 6.31	 0	 0	 1	 1.035	 0	 110	 4	 1.12	 0.95;
	 156	 2	 20.27	 6.53	 0	 0	 1	 1.035	 0	 110	 4	 1.12	 0.95;
	 157	 1	 6.61	 0.86	 0	 0	 1	 1.035	 0	 110	 4	 1.12	 0.95;
	 158	 2	 15.63	 2.73	 0	 0	 1	 1.035	 0	 110	 4	 1.12	 0.95;
	 159	 1	 1.84	 0.63	 0	 0	 1	 1.035	 0	 110	 4	 1.12	 0.95;
	 160	 1	 0	 0	 0	 0	 1	 1	 0	 400	 4	 1.05	 0.95;
	 161	 2	 634	 0	 0	 0	 0	 1.03	 0	 220	 0	 1.11	 0.95;
];

mpc_regionR3.gen = [
%	bus         Pg          Qg          Qmax        Qmin        Vg          mBase       status      Pmax        Pmin        Pc1         Pc2         Qc1min      Qc1max      Qc2min      Qc2max      ramp_agc    ramp_10     ramp_30     ramp_q      apf         
	 5	 179.75	 0	 146	-146	 1.03	 238	 1	 292	 67.5;
	 6	 0	 0	 102	-35	 1.03	 252	 0	 70	 45;
	 6	 0	 0	 111	-45	 1.03	 238	 0	 90	 67.5;
	 6	 153	 0	 128	-128	 1.03	 252	 1	 256	 50;
	 7	 99	 12.5	 102	-77	 1	 252	 1	 153	 45;
	 8	 0	 0	 105	-105	 1	 252	 0	 209	 50;
	 8	 106.5	 9	 102	-84	 1	 252	 1	 168	 45;
	 16	 0	 0	 187	-187	 1.03	 218	 0	 374	 38;
	 36	 163	 0	 141	-141	 1.035	 252	 1	 281	 45;
	 41	 0	 0	 73	-73	 1.035	 27	 0	 145	-10;
	 41	 23	 0	 21	-21	 1.035	 29	 1	 41	 5;
	 41	 0	 0	 58	-58	 1.035	 27	 0	 116	-10;
	 45	 39	 0	 39	-39	 1.035	 2	 1	 78	 0;
	 46	 0	 0	 30	-30	 1.035	 2	 0	 59	 0;
	 48	 47	 0	 45	-45	 1.035	 57	 1	 89	 5;
	 48	 48.5	 0	 48	-48	 1.035	 6	 1	 96	 1;
	 49	 110.25	 0	 110	-110	 1.035	 5	 1	 220	 0.5;
	 49	 0	 0	 50	-50	 1.035	 30	 0	 100	 10.5;
	 67	 0	 0	 19	-19	 1.035	 2	 0	 38	 0.5;
	 69	 27	 0	 27	-27	 1.035	 5	 1	 53	 1;
	 85	 0	 0	 3.6	-3.6	 1.035	 0	 1	 0	 0;
	 85	 50.75	 0	 51	-51	 1.035	 2	 1	 101	 0.5;
	 95	 48.25	 0	 48	-48	 1.035	 7	 1	 95	 1.5;
	 96	 115.25	 0	 115	-115	 1.035	 4	 1	 230	 0.5;
	 97	 57.5	 0	 56	-56	 1.035	 25	 1	 112	 3;
	 106	 0	 0	 197	-197	 1.035	 67	 0	 394	 20;
	 107	 82	 0	 72	-72	 1.035	 67	 1	 144	 20;
	 110	 29.5	 0	 30	-30	 1.035	 16	 1	 59	 0;
	 111	 42.5	 0	 43	-43	 1.035	 16	 1	 85	 0;
	 119	 35.5	 0	 36	-36	 1.035	 0	 1	 71	 0;
	 120	 0	 0	 52	-52	 1.035	 3	 0	 104	 1;
	 130	 58.75	 0	 59	-59	 1.035	 2	 1	 117	 0.5;
	 131	 0	 0	 45	-45	 1.035	 5	 0	 90	 0.5;
	 131	 0	 0	 34	-34	 1.035	 19	 0	 67	 1.5;
	 131	 0	 0	 15	-9	 1.035	 58	 0	 17	 5;
	 133	 0	 0	 7.2	-7.2	 1.035	 0	 1	 0	 0;
	 156	 0	 0	 10	-6	 1.035	 16	 0	 11	 1.5;
	 156	 55.25	 0	 55	-55	 1.035	 15	 1	 109	 1.5;
	 158	 46	 0	 46	-46	 1.035	 2	 1	 92	 0;
	 161	 0	 0	 19.2	-19.2	 1.03	 11822	 1	 0	 0;
];

mpc_regionR3.branch = [
%	fbus        tbus        r           x           b           rateA       rateB       rateC       ratio       angle       status      angmin      angmax      
	 6	 7	 0.00064	 0.0305	 0	 400	 400	 400	 1.07408	 0	 1	-30	 30;
	 161	 5	 0.0018	 0.01616	 0.0484	 387	 387	 387	 0	 0	 1	-30	 30;
	 161	 6	 0.0018	 0.01616	 0.0484	 387	 387	 387	 0	 0	 1	-30	 30;
	 5	 3	 0.01062	 0.0789	 0.12085	 317	 317	 317	 0	 0	 1	-30	 30;
	 9	 16	 0.00225	 0.01667	 0.02541	 286	 286	 286	 0	 0	 1	-30	 30;
	 10	 3	 0.01058	 0.07762	 0.12203	 231	 231	 231	 0	 0	 1	-30	 30;
	 11	 5	 0.00469	 0.03486	 0.05338	 317	 317	 317	 0	 0	 1	-30	 30;
	 6	 1	 0.00568	 0.04012	 0.07033	 317	 317	 317	 0	 0	 1	-30	 30;
	 13	 1	 0.00105	 0.00733	 0.01258	 231	 231	 231	 0	 0	 1	-30	 30;
	 14	 11	 0.00744	 0.05397	 0.09307	 231	 231	 231	 0	 0	 1	-30	 30;
...